Version 4
SHEET 2 1640 692
DATAFLAG 10 20 V(out)
TEXT 0 32 Left 2 !.tf V(out) V1
