Version 4.1
SHEET 1 880 680
SYMBOL res 0 0 R0
SYMATTR InstName R1
SYMATTR Value 1k
TEXT 0 64 Left 2 !.ac dec 10 1 1k
