Version 4
SHEET 1 880 680
WIRE 0 0 64 0
TEXT 0 32 Left 2 !.tran 10m
