R9 NODEA 0 5k
I7 0 NODEA 1m
.op
.backanno
.end
