V1 in 0 AC 1
R1 in out 1k
C1 out 0 10n
.ac dec 10 1 1Meg
.backanno
.end
