V1 in 0 AC 1
R1 in out 1k
R2 out 0 1k
.noise V(out) V1 dec 10 1 1Meg
.backanno
.end
