V1 in 0 5
R1 in out {RVALUE}
C1 out 0 100n
.param RVALUE=1k
.tran 10m
.backanno
.end
