Version 4.1
SHEET 1 880 680
SYMBOL Semiconductors\nmos 256 400 M0
SYMATTR InstName M5
SYMBOL npn 448 336 M90
SYMATTR InstName Q3
