Version 4.1
SHEET 1 880 680
WIRE 432 112 496 112
WIRE 576 208 576 288
FLAG 496 112 NET_R2
FLAG 576 288 0
SYMBOL Passive\res 432 112 M180
WINDOW 0 32 56 Left 2
SYMATTR InstName R2
SYMATTR Value 47k
SYMATTR Type resistor
SYMBOL Diodes\diode 576 208 M270
SYMATTR InstName D2
SYMATTR Value BAT54
SYMATTR SpiceLine Vfwd=0.24
TEXT 656 192 Left 2 !.op
