Version 4.1
SHEET 1 880 680
SYMBOL Semiconductors\pnp 544 176 R90
SYMATTR InstName Q2
