Version 4.1
SHEET 1 880 680
SYMBOL voltage 144 96 R90
SYMATTR InstName V2
SYMBOL Sources\current 320 96 R270
SYMATTR InstName I2
SYMBOL nmos 528 208 R90
SYMATTR InstName M6
SYMBOL Power\pmos 736 272 M180
SYMATTR InstName M7
