Version 4.1
SHEET 1 880 680
SYMBOL nmos 608 352 R180
SYMATTR InstName M1
