Version 4.1
SHEET 1 880 680
SYMBOL Sources\voltage 128 192 M0
SYMATTR InstName V1
SYMBOL current 304 224 M90
SYMATTR InstName I1
