Version 4.1
SHEET 1 880 680
WIRE 256 240 256 304
WIRE 320 240 384 240
FLAG 256 304 0
FLAG 384 240 VCC
SYMBOL Semiconductors\npn 256 240 R0
WINDOW 0 36 72 Left 2
SYMATTR InstName Q1
SYMATTR Value 2N3904
SYMATTR SpiceLine Bf=200
SYMATTR Type npn
TEXT 432 208 Left 2 !.op
