Version 4.1
SHEET 1 880 680
SYMBOL OpAmps\AD823 320 224 R0
SYMATTR InstName U2
SYMBOL OpAmps\AD823 672 352 R270
SYMATTR InstName U3
