Version 4.1
SHEET 1 880 680
SYMBOL cap 192 256 M180
SYMATTR InstName C2
SYMBOL Passive\ind 384 416 M270
SYMATTR InstName L2
