Version 4.1
SHEET 1 880 680
SYMBOL OpAmps\AD823 480 320 R180
SYMATTR InstName U1
