Version 4.1
SHEET 1 880 680
WIRE 704 192 768 192
WIRE 640 192 576 192
FLAG 768 192 OUT_P
FLAG 576 192 IN_P
SYMBOL Power\pmos 704 192 R270
WINDOW 0 40 56 Left 2
SYMATTR InstName M2
SYMATTR Value IRF9540
SYMATTR SpiceLine m=4
SYMATTR Type pmos
TEXT 816 176 Left 2 !.op
