Version 4.1
SHEET 1 880 680
WIRE 544 176 608 176
FLAG 608 176 OUT
SYMBOL Semiconductors\pnp 544 176 R90
WINDOW 3 -32 40 Left 2
SYMATTR InstName Q2
SYMATTR Value 2N3906
SYMATTR Type pnp
TEXT 704 176 Left 2 !.dc V1 0 5 0.5
