Version 4.1
SHEET 1 880 680
SYMBOL Power\pmos 704 192 R270
SYMATTR InstName M2
