Version 4.1
SHEET 1 880 680
SYMBOL Semiconductors\npn 256 240 R0
SYMATTR InstName Q1
