Version 4.1
SHEET 1 880 680
SYMBOL ind 480 144 R180
SYMATTR InstName L1
SYMBOL diode 624 176 R270
SYMATTR InstName D1
