Version 4.1
SHEET 1 880 680
SYMBOL res 160 96 R0
SYMATTR InstName R1
SYMBOL cap 320 96 R90
SYMATTR InstName C1
