Version 4.1
SHEET 1 880 680
SYMBOL Passive\res 432 112 M180
SYMATTR InstName R2
SYMBOL Diodes\diode 576 208 M270
SYMATTR InstName D2
