Version 4.1
SHEET 1 880 680
WIRE 480 320 416 320
WIRE 544 320 608 320
FLAG 416 320 VIN
FLAG 608 320 VOUT
SYMBOL OpAmps\AD823 480 320 R180
WINDOW 0 32 40 Left 2
SYMATTR InstName U1
SYMATTR Value AD823
SYMATTR SpiceLine GBW=16Meg
SYMATTR Type opamp
TEXT 672 320 Left 2 !.tf V(vout) V1
