Version 4.1
SHEET 1 880 680
SYMBOL pnp 272 192 R180
SYMATTR InstName Q4
SYMBOL Diodes\diode 448 160 M0
SYMATTR InstName D3
SYMBOL res 560 304 R270
SYMATTR InstName R3
