Version 4.1
SHEET 1 880 680
SYMBOL pmos 304 144 R0
SYMATTR InstName M3
SYMBOL Power\pmos 640 256 R90
SYMATTR InstName M4
