Version 4.1
SHEET 1 880 680
TEXT 0 0 Left 2 !.ac dec 10 1 1k
