Version 4.1
SHEET 1 880 680
TEXT 0 0 Left 2 !.model SW SW(Ron=1u Roff=1Meg Vt=1)
TEXT 0 32 Left 2 !.tran 10m
