Version 4
SHEET 1 880 680
TEXT 0 0 Left 2 !.step param R 1k 2k 1k
TEXT 0 32 Left 2 !.op
