I1 0 N001 2m
R1 N001 0 5k
.op
.backanno
.end
