V1 A 0 3
R1 A B 1k
R2 B C 2k
C1 C 0 33n
.tran 2m
.backanno
.end
