Version 4
SHEET 1 880 680
WIRE 0 0 64 0
SYMBOL res 0 0 R360
TEXT 0 0 Left 2 !.tran 10m
