Version 4
SHEET 1 880
TEXT 0 0 Left 2 !.tran 10m
