Version 4.1
SHEET 1 1012 680
WIRE 480 128 496 128
WIRE 464 80 496 80
WIRE 368 160 352 160
WIRE -512 368 -512 384
WIRE 640 16 640 32
WIRE 592 0 576 0
WIRE 944 0 960 0
WIRE -112 416 -112 432
WIRE 80 48 80 64
WIRE 80 272 80 288
WIRE -768 -272 -768 -256
WIRE 496 128 496 80
WIRE 496 80 496 0
WIRE 496 0 576 0
WIRE 576 0 576 32
WIRE 576 32 640 32
WIRE 496 128 496 176
WIRE 496 176 352 176
WIRE 352 176 352 160
WIRE 640 32 960 32
WIRE 960 32 960 0
WIRE 352 160 80 160
WIRE 80 160 80 64
WIRE 80 64 0 64
WIRE 0 64 0 288
WIRE 0 288 80 288
WIRE 80 288 80 432
WIRE 80 432 -112 432
WIRE -112 432 -512 432
WIRE -512 432 -512 384
WIRE -512 384 -768 384
WIRE -768 384 -768 -256
FLAG 80 432 0
WIRE 944 -96 960 -96
WIRE -512 -288 -512 -272
WIRE -512 64 -512 48
WIRE 960 -96 960 -160
WIRE 960 -160 -512 -160
WIRE -512 -160 -512 48
WIRE -512 48 -512 -272
WIRE 640 -64 640 -80
WIRE 592 -48 576 -48
WIRE 880 -48 864 -48
WIRE -112 -48 -112 -32
WIRE -112 64 -112 48
WIRE 48 0 32 0
WIRE -112 -32 -112 48
WIRE -112 -32 -112 0
WIRE -112 0 32 0
WIRE 368 128 352 128
WIRE 112 16 128 16
WIRE 352 128 128 128
WIRE 128 128 128 16
WIRE -512 304 -512 288
WIRE -512 144 -512 160
WIRE 48 32 32 32
WIRE 48 224 32 224
WIRE -512 288 -512 160
WIRE -512 160 -512 224
WIRE -512 224 32 224
WIRE 32 224 32 32
WIRE 368 80 352 80
WIRE 112 240 128 240
WIRE 352 80 144 80
WIRE 144 80 144 240
WIRE 144 240 128 240
WIRE -112 144 -112 160
WIRE -112 336 -112 320
WIRE 48 256 32 256
WIRE -112 160 -112 320
WIRE -112 320 -112 256
WIRE -112 256 32 256
WIRE -112 -128 -112 -144
WIRE -512 -368 -512 -384
WIRE 80 -16 80 -32
WIRE 80 208 80 192
WIRE -768 -352 -768 -368
WIRE -112 -144 80 -144
WIRE 80 -144 80 -32
WIRE 80 -32 16 -32
WIRE 16 -32 16 192
WIRE 16 192 80 192
WIRE -112 -144 -112 -384
WIRE -112 -384 -512 -384
WIRE -512 -384 -768 -384
WIRE -768 -384 -768 -368
FLAG -768 -384 Vcc
SYMBOL Digital\\srflop 416 32 R0
SYMATTR InstName A1
SYMBOL res -128 -144 R0
SYMATTR InstName R1
SYMATTR Value 5k
SYMBOL res -128 48 R0
SYMATTR InstName R2
SYMATTR Value 5k
SYMBOL res -128 320 R0
SYMATTR InstName R3
SYMATTR Value 5k
SYMBOL res -528 -384 R0
SYMATTR InstName R4
SYMATTR Value 10k
SYMBOL res -528 48 R0
SYMATTR InstName R5
SYMATTR Value 10k
SYMBOL cap -528 304 R0
SYMATTR InstName C1
SYMATTR Value 100n
SYMBOL Comparators\\LT1018 80 16 R0
SYMATTR InstName U1
SYMBOL Comparators\\LT1018 80 240 R0
SYMATTR InstName U2
SYMBOL voltage -768 -368 R0
WINDOW 123 0 0 Left 0
WINDOW 39 0 0 Left 0
SYMATTR InstName V1
SYMATTR Value 5
SYMBOL npn 880 -96 R0
SYMATTR InstName Q1
SYMBOL e 640 -80 R0
SYMATTR InstName E1
SYMATTR Value 5
TEXT -818 -176 Left 2 !.tran 10m
TEXT -80 472 Left 2 ;1 GND
TEXT -376 256 Left 2 ;2 Trigger
TEXT -392 0 Left 2 ;6 Threshold
TEXT -328 -176 Left 2 ;8 Vcc
TEXT 672 -136 Left 2 ;3 OUT
TEXT 320 -328 Left 2 ;555 Timer
TEXT -384 -280 Left 2 ;7 Discharge
TEXT 400 -472 Left 2 ;4 Reset
TEXT -24 -440 Left 2 ;5
TEXT -104 -632 Left 4 ;555 Timer - Astable mode
TEXT 472 208 Left 2 ;RS flip flop truth table\n \nR S Q\n0 0 Keeps previous state (either 0 or 1)\n0 1 1\n1 0 0\n1 1 prohibited
LINE Normal 448 -448 448 48 2
LINE Normal -16 -416 -16 0 2
RECTANGLE Normal 1008 448 -256 -352 2
