Version 4.1
SHEET 1 1844 1080
WIRE 1312 624 1328 624
WIRE 1296 576 1328 576
WIRE 1200 656 1184 656
WIRE 272 400 272 416
WIRE 1472 512 1472 528
WIRE 1424 496 1408 496
WIRE 1776 496 1792 496
WIRE 720 912 720 928
WIRE 112 896 112 912
WIRE 64 880 48 880
WIRE 912 544 912 560
WIRE 912 768 912 784
WIRE 64 224 64 240
WIRE -64 928 -64 944
WIRE 1328 624 1328 576
WIRE 1328 576 1328 496
WIRE 1328 496 1408 496
WIRE 1408 496 1408 528
WIRE 1408 528 1472 528
WIRE 1328 624 1328 672
WIRE 1328 672 1184 672
WIRE 1184 672 1184 656
WIRE 1472 528 1792 528
WIRE 1792 528 1792 496
WIRE 1184 656 912 656
WIRE 912 656 912 560
WIRE 912 560 832 560
WIRE 832 560 832 784
WIRE 832 784 912 784
WIRE 912 784 912 928
WIRE 912 928 720 928
WIRE 720 928 112 928
WIRE 112 928 112 912
WIRE 112 912 48 912
WIRE 48 912 48 880
WIRE 48 880 48 944
WIRE 48 944 -64 944
WIRE 48 880 32 880
WIRE 32 880 32 240
WIRE 32 240 64 240
WIRE 64 240 64 416
WIRE 64 416 272 416
FLAG 48 944 0
WIRE 272 336 272 320
WIRE 1776 400 1792 400
WIRE 272 176 272 192
WIRE 880 528 864 528
WIRE 272 320 272 192
WIRE 272 320 832 320
WIRE 832 320 832 528
WIRE 832 528 864 528
WIRE 864 528 832 528
WIRE 832 528 832 384
WIRE 832 384 1792 384
WIRE 1792 384 1792 400
WIRE 1472 432 1472 416
WIRE 1424 448 1408 448
WIRE 1712 448 1696 448
WIRE 720 448 720 464
WIRE 720 560 720 544
WIRE 880 496 864 496
WIRE 720 464 720 544
WIRE 720 464 720 496
WIRE 720 496 864 496
WIRE 1200 624 1184 624
WIRE 944 512 960 512
WIRE 1184 624 960 624
WIRE 960 624 960 512
WIRE 1200 576 1184 576
WIRE 944 736 960 736
WIRE 1184 576 976 576
WIRE 976 576 976 736
WIRE 976 736 960 736
WIRE 112 688 112 704
WIRE 112 816 112 800
WIRE 880 720 864 720
WIRE 112 704 112 800
WIRE 112 704 112 720
WIRE 112 720 864 720
WIRE 720 640 720 656
WIRE 720 832 720 816
WIRE 880 752 864 752
WIRE 720 656 720 816
WIRE 720 816 720 752
WIRE 720 752 864 752
WIRE 64 832 48 832
WIRE -64 848 -64 832
WIRE 48 832 -64 832
WIRE 720 368 720 352
WIRE 112 608 112 592
WIRE 272 96 272 80
WIRE 912 480 912 464
WIRE 912 704 912 688
WIRE 64 144 64 128
WIRE 720 352 912 352
WIRE 912 352 912 464
WIRE 912 464 848 464
WIRE 848 464 848 688
WIRE 848 688 912 688
WIRE 720 352 720 80
WIRE 720 80 272 80
WIRE 272 80 64 80
WIRE 64 80 64 128
WIRE 64 128 112 128
WIRE 112 128 112 592
FLAG 64 80 Vcc
SYMBOL Digital\\srflop 1248 528 R0
SYMATTR InstName A1
SYMBOL res 704 352 R0
SYMATTR InstName R1
SYMATTR Value 5k
SYMBOL res 704 544 R0
SYMATTR InstName R2
SYMATTR Value 5k
SYMBOL res 704 816 R0
SYMATTR InstName R3
SYMATTR Value 5k
SYMBOL res 96 592 R0
SYMATTR InstName R4
SYMATTR Value 10k
SYMBOL res 256 80 R0
SYMATTR InstName R5
SYMATTR Value 10k
SYMBOL cap 256 336 R0
SYMATTR InstName C1
SYMATTR Value 100n
SYMBOL Comparators\\LT1018 912 512 R0
SYMATTR InstName U1
SYMBOL Comparators\\LT1018 912 736 R0
SYMATTR InstName U2
SYMBOL voltage 64 128 R0
WINDOW 123 0 0 Left 0
WINDOW 39 0 0 Left 0
SYMATTR InstName V1
SYMATTR Value 5
SYMBOL npn 1712 400 R0
SYMATTR InstName Q1
SYMBOL e 1472 416 R0
SYMATTR InstName E1
SYMATTR Value 5
SYMBOL sw 112 912 M180
SYMATTR InstName S1
SYMBOL voltage -64 832 R0
WINDOW 3 -423 31 Left 2
WINDOW 123 0 0 Left 0
WINDOW 39 0 0 Left 0
SYMATTR InstName V2
SYMATTR Value PULSE(0 5 0.2m 1n 1n 10u 100u 1)
TEXT 14 320 Left 2 !.tran 2m
TEXT 752 968 Left 2 ;1 GND
TEXT 456 752 Left 2 ;2 Trigger
TEXT 440 496 Left 2 ;6 Threshold
TEXT 504 320 Left 2 ;8 Vcc
TEXT 1504 360 Left 2 ;3 OUT
TEXT 1152 168 Left 2 ;555 Timer
TEXT 448 216 Left 2 ;7 Discharge
TEXT 1232 24 Left 2 ;4 Reset
TEXT 808 56 Left 2 ;5
TEXT 728 -136 Left 4 ;555 Timer - Monostable mode
TEXT 1304 704 Left 2 ;RS flip flop truth table\n \nR S Q\n0 0 Keeps previous state (either 0 or 1)\n0 1 1\n1 0 0\n1 1 prohibited
TEXT 8 1000 Left 2 !.model SW SW(Ron=1u Roff=1Meg Vt=0.5 Vh=0.1)
LINE Normal 1280 48 1280 544 2
LINE Normal 816 80 816 496 2
RECTANGLE Normal 1840 944 576 144 2
