Version 4.1
SHEET 1 1844 680
WIRE 720 192 720 208
WIRE -16 208 0 208
WIRE 96 384 96 400
WIRE 160 32 144 32
WIRE 896 -240 896 -224
WIRE -528 256 -528 272
WIRE 720 208 896 208
WIRE 896 208 896 -224
WIRE 720 208 720 272
WIRE 720 272 0 272
WIRE 0 272 0 208
WIRE 0 208 0 400
WIRE 0 400 96 400
WIRE 0 208 128 208
WIRE 128 208 128 32
WIRE 128 32 144 32
WIRE 0 208 0 272
WIRE 0 272 -528 272
FLAG 96 400 0
WIRE -16 112 0 112
WIRE -16 0 -16 16
WIRE 160 96 144 96
WIRE 0 112 0 16
WIRE 0 16 -16 16
WIRE 0 112 0 96
WIRE 0 96 144 96
WIRE 720 128 720 112
WIRE 720 16 720 32
WIRE 384 160 400 160
WIRE 384 96 400 96
WIRE 720 112 720 32
WIRE 720 112 720 96
WIRE 720 96 400 96
WIRE 400 96 400 160
WIRE -272 160 -288 160
WIRE -528 176 -528 160
WIRE -288 160 -528 160
WIRE -80 160 -96 160
WIRE -192 160 -176 160
WIRE -96 160 -176 160
WIRE 96 304 96 288
WIRE 160 160 144 160
WIRE 96 288 96 160
WIRE 96 160 144 160
WIRE 720 -64 720 -80
WIRE -16 -80 -16 -96
WIRE 384 32 400 32
WIRE 896 -320 896 -336
WIRE 720 -80 400 -80
WIRE 400 -80 400 32
WIRE 720 -80 720 -336
WIRE 720 -336 896 -336
WIRE 400 32 400 -96
WIRE 400 -96 -16 -96
FLAG 720 -336 power
SYMBOL Misc\\NE555 272 128 R0
SYMATTR InstName U1
SYMBOL voltage 896 -336 R0
WINDOW 123 0 0 Left 0
WINDOW 39 0 0 Left 0
SYMATTR InstName V1
SYMATTR Value 12
SYMBOL res 704 -80 R0
SYMATTR InstName R1
SYMATTR Value 1k
SYMBOL cap 704 128 R0
SYMATTR InstName C1
SYMATTR Value 10”
SYMBOL res -32 -96 R0
SYMATTR InstName R2
SYMATTR Value 10k
SYMBOL npn -80 112 R0
SYMATTR InstName Q1
SYMATTR Value 2N3904
SYMBOL voltage -528 160 R0
WINDOW 123 0 0 Left 0
WINDOW 39 0 0 Left 0
SYMATTR InstName V2
SYMATTR Value PULSE(0 12 10m 1n 1n 1m 1m 1)
SYMBOL res -176 144 R90
WINDOW 0 0 56 VBottom 2
WINDOW 3 32 56 VTop 2
SYMATTR InstName R3
SYMATTR Value 10k
SYMBOL res 80 288 R0
SYMATTR InstName R4
SYMATTR Value 10k
TEXT 984 -224 Left 2 !.tran 100m
TEXT 856 88 Left 2 ;When pin 2 (trigger) goes low, pin 3 (output) goes high for a time T = 1.1*R1*C1 = 11 ms\n-> Resistor R1 and capacitor C1 determine the duration of the output pulse\n \nNote:\n1. For the circuit to work correctly the duration of V2 should be lower than 1.1*R1*C1
TEXT 40 -488 Left 4 ;555 monostable mode
