Version 4.1
SHEET 1 1328 680
WIRE 256 176 272 176
WIRE 464 128 464 144
WIRE -160 240 -160 256
WIRE -80 -16 -80 0
WIRE 272 176 272 144
WIRE 272 144 464 144
WIRE 272 176 272 256
WIRE 272 256 -160 256
WIRE -160 256 -96 256
WIRE -96 256 -96 0
WIRE -96 0 -80 0
FLAG 272 256 0
WIRE 96 16 96 0
WIRE 256 -96 256 -112
WIRE -80 -96 -80 -112
WIRE 96 0 96 -112
WIRE 96 -112 256 -112
WIRE 96 -112 -80 -112
WIRE 336 32 320 32
WIRE 256 80 272 80
WIRE 256 -16 256 0
WIRE 320 32 320 0
WIRE 320 0 256 0
WIRE 256 0 272 0
WIRE 272 0 272 80
WIRE 400 32 416 32
WIRE 464 48 464 32
WIRE 416 32 464 32
WIRE -64 128 -80 128
WIRE -160 160 -160 144
WIRE -80 128 -80 144
WIRE -80 144 -160 144
WIRE 0 128 16 128
WIRE 192 128 176 128
WIRE 96 96 96 112
WIRE 16 128 16 112
WIRE 16 112 96 112
WIRE 96 112 96 128
WIRE 96 128 176 128
SYMBOL res 80 0 R0
SYMATTR InstName R2
SYMATTR Value 0.56Meg
SYMBOL voltage -160 144 R0
WINDOW 123 0 0 Left 2
WINDOW 39 0 0 Left 2
SYMATTR InstName V1
SYMATTR Value SINE(0 1m 10k)
SYMBOL voltage -80 -112 R0
WINDOW 123 0 0 Left 2
WINDOW 39 0 0 Left 2
SYMATTR InstName V2
SYMATTR Value 5
SYMBOL npn 192 80 R0
SYMATTR InstName Q1
SYMATTR Value 2N3904
SYMBOL cap 0 112 R90
WINDOW 0 0 32 VBottom 2
WINDOW 3 32 32 VTop 2
SYMATTR InstName C1
SYMATTR Value 1µ
SYMBOL res 240 -112 R0
SYMATTR InstName R3
SYMATTR Value 1k
SYMBOL cap 400 16 R90
WINDOW 0 0 32 VBottom 2
WINDOW 3 32 32 VTop 2
SYMATTR InstName C2
SYMATTR Value 1µ
SYMBOL res 448 32 R0
SYMATTR InstName R4
SYMATTR Value 10k
TEXT 552 -16 Left 2 !.tran 1m
TEXT 552 -72 Left 2 ;Note for sizing: At no load, it must be Vcc/2 on collector
TEXT 88 -248 Left 4 ;A class amplifier with BJT
