Version 4.1
SHEET 1 2132 1044
WIRE 592 160 608 160
WIRE -288 720 -288 736
WIRE -208 80 -208 96
WIRE -320 80 -320 96
WIRE 736 112 736 128
WIRE -80 832 -80 848
WIRE 192 832 192 848
WIRE 448 832 448 848
WIRE -624 48 -624 64
WIRE -528 48 -528 64
WIRE 608 160 608 128
WIRE 608 128 736 128
WIRE 608 160 608 848
WIRE 608 848 448 848
WIRE 448 848 192 848
WIRE 192 848 -80 848
WIRE -80 848 -288 848
WIRE -288 848 -288 736
WIRE -288 736 -336 736
WIRE -336 736 -336 96
WIRE -336 96 -320 96
WIRE -320 96 -208 96
WIRE -320 96 -528 96
WIRE -528 96 -528 64
WIRE -528 64 -624 64
FLAG 608 848 0
WIRE -400 528 -400 512
WIRE -272 528 -272 512
WIRE -400 512 -272 512
FLAG -400 512 Audio
WIRE 592 64 608 64
WIRE 640 -160 624 -160
WIRE 768 -48 752 -48
WIRE 608 64 608 -160
WIRE 608 -160 624 -160
WIRE 624 -160 624 -48
WIRE 624 -48 752 -48
WIRE 768 -16 752 -16
WIRE 736 32 736 16
WIRE 752 -16 752 16
WIRE 752 16 736 16
WIRE 448 128 464 128
WIRE 544 128 528 128
WIRE 480 176 480 160
WIRE 464 128 464 160
WIRE 464 160 480 160
WIRE 464 128 528 128
WIRE -288 640 -288 624
WIRE -400 608 -400 624
WIRE -288 592 -288 608
WIRE -288 624 -288 608
WIRE -288 624 -400 624
WIRE -80 656 -80 640
WIRE 192 656 192 640
WIRE 448 656 448 640
WIRE -256 592 -256 608
WIRE -80 640 -80 608
WIRE -80 608 -256 608
WIRE -80 640 192 640
WIRE 192 640 448 640
WIRE -80 736 -80 752
WIRE -80 752 -80 736
WIRE 192 736 192 752
WIRE 192 752 192 736
WIRE 448 736 448 752
WIRE 448 752 448 736
WIRE 720 -160 736 -160
WIRE 832 -32 848 -32
WIRE 736 -160 848 -160
WIRE 848 -160 848 -32
FLAG 720 -160 OUT
WIRE 480 256 480 272
WIRE -320 0 -320 -16
WIRE 480 272 -272 272
WIRE -272 272 -272 -16
WIRE -272 -16 -320 -16
FLAG -320 -16 Vbias
WIRE -304 560 -320 560
WIRE -624 -32 -624 -48
WIRE -320 560 -320 112
WIRE -320 112 -576 112
WIRE -576 112 -576 -48
WIRE -576 -48 -624 -48
FLAG -624 -48 Vcc
WIRE -240 560 -224 560
WIRE -528 -32 -528 -48
WIRE -224 560 -160 560
WIRE -160 560 -160 -48
WIRE -160 -48 -528 -48
FLAG -528 -48 Vee
WIRE 384 128 368 128
WIRE -208 0 -208 -16
WIRE 368 128 368 -16
WIRE 368 -16 -208 -16
FLAG -208 -16 Vsignal
SYMBOL voltage -208 -16 R0
WINDOW 123 0 0 Left 2
WINDOW 39 0 0 Left 2
SYMATTR InstName V1
SYMATTR Value SINE(0 1 10k 0.5m)
SYMBOL voltage -320 -16 R0
WINDOW 123 0 0 Left 2
WINDOW 39 0 0 Left 2
SYMATTR InstName V2
SYMATTR Value -2
SYMBOL njf 544 64 R0
SYMATTR InstName J1
SYMATTR Value 2N3819
SYMBOL Opamps\\opamp 800 -96 R0
SYMATTR InstName U1
SYMBOL cap 448 112 R90
WINDOW 0 0 32 VBottom 2
WINDOW 3 32 32 VTop 2
SYMATTR InstName C1
SYMATTR Value 1µ
SYMBOL res 464 160 R0
SYMATTR InstName R1
SYMATTR Value 10k
SYMBOL res 736 -176 R90
WINDOW 0 0 56 VBottom 2
WINDOW 3 32 56 VTop 2
SYMATTR InstName R2
SYMATTR Value 1k
SYMBOL voltage 736 16 R0
WINDOW 123 0 0 Left 2
WINDOW 39 0 0 Left 2
SYMATTR InstName V3
SYMATTR Value SINE(0 100m 200k)
SYMBOL voltage -80 736 R0
WINDOW 123 0 0 Left 2
WINDOW 39 0 0 Left 2
SYMATTR InstName V4
SYMATTR Value SINE(0 500m 2k)
SYMBOL Opamps\\LT1007 -336 560 R270
SYMATTR InstName U2
SYMBOL res -304 624 R0
SYMATTR InstName R3
SYMATTR Value 10k
SYMBOL res -416 512 R0
SYMATTR InstName R4
SYMATTR Value 20k
SYMBOL res -96 640 R0
SYMATTR InstName R5
SYMATTR Value 10k
SYMBOL voltage 192 736 R0
WINDOW 123 0 0 Left 2
WINDOW 39 0 0 Left 2
SYMATTR InstName V5
SYMATTR Value SINE(0 200m 1k)
SYMBOL res 176 640 R0
SYMATTR InstName R6
SYMATTR Value 10k
SYMBOL voltage 448 736 R0
WINDOW 123 0 0 Left 2
WINDOW 39 0 0 Left 2
SYMATTR InstName V6
SYMATTR Value SINE(0 200m 5k)
SYMBOL res 432 640 R0
SYMATTR InstName R7
SYMATTR Value 10k
SYMBOL voltage -624 -48 R0
WINDOW 123 0 0 Left 2
WINDOW 39 0 0 Left 2
SYMATTR InstName V7
SYMATTR Value 15
SYMBOL voltage -528 -48 R0
WINDOW 123 0 0 Left 2
WINDOW 39 0 0 Left 2
SYMATTR InstName V8
SYMATTR Value -15
TEXT 64 -64 Left 2 !.tran 1m
TEXT 64 -16 Left 2 !.lib opamp.sub
TEXT 792 72 Left 2 ;Carrier wave 200kHz
TEXT -416 -152 Left 2 ;Opamp gain depends on JFET resistance which is modulated by the modulating signal
TEXT 64 -104 Left 2 ;Vsignal is the modulating 10kHz signal
TEXT -408 184 Left 2 ;Modulated signal spectrum (OUT) is Fc-Fm, Fc+Fm.\nFm max frequency modulating signal\nFc carrier wave frequency\nPeaks can be seen in the FT\nUse gaussian window function
TEXT -16 472 Left 2 ;Audio signal. Example 1k + 2k + 5k Hz. FFT of signal \ncontains these frequencies. Output should contain this too.
TEXT -456 360 Left 2 ;Audio signal to be tested in the place of Vsignal. \nUsing a 200kHz carrier, the spectrum is at 200-5 and 200+5 kHz
TEXT 16 -288 Left 4 ;AM modulator
RECTANGLE Normal 704 896 -464 416 2
