Version 4.1
SHEET 1 880 680
WIRE -864 384 -864 400
WIRE -432 368 -432 384
WIRE -1120 288 -1120 304
WIRE -960 96 -960 112
WIRE -608 256 -608 272
WIRE -528 64 -528 80
WIRE -864 400 -1120 400
WIRE -1120 400 -1120 304
WIRE -1120 304 -960 304
WIRE -960 304 -960 112
WIRE -864 400 -608 400
WIRE -608 400 -608 272
WIRE -608 272 -528 272
WIRE -528 272 -528 80
WIRE -608 272 -608 384
WIRE -608 384 -432 384
FLAG -608 400 0
WIRE -432 96 -416 96
WIRE -528 -16 -528 -32
WIRE -416 96 -416 -32
WIRE -416 -32 -528 -32
WIRE -864 128 -848 128
WIRE -960 16 -960 0
WIRE -848 128 -848 0
WIRE -848 0 -960 0
WIRE -496 144 -512 144
WIRE -608 176 -608 160
WIRE -512 144 -512 160
WIRE -512 160 -608 160
WIRE -432 192 -416 192
WIRE -432 288 -432 272
WIRE -416 192 -416 272
WIRE -416 272 -432 272
WIRE -928 176 -944 176
WIRE -1120 208 -1120 192
WIRE -944 176 -944 192
WIRE -944 192 -1120 192
FLAG -944 176 Vin
WIRE -864 224 -848 224
WIRE -864 304 -864 288
WIRE -848 224 -848 288
WIRE -848 288 -864 288
FLAG -864 224 Vout
SYMBOL npn -928 128 R0
SYMATTR InstName Q1
SYMATTR Value 2N3904
SYMBOL res -880 288 R0
SYMATTR InstName R1
SYMATTR Value 5k
SYMBOL voltage -1120 192 R0
WINDOW 123 0 0 Left 2
WINDOW 39 0 0 Left 2
SYMATTR InstName V1
SYMATTR Value SINE(5 .2 1Meg)
SYMBOL voltage -960 0 R0
WINDOW 123 0 0 Left 2
WINDOW 39 0 0 Left 2
SYMATTR InstName V2
SYMATTR Value 5
SYMBOL npn -496 96 R0
SYMATTR InstName Q2
SYMATTR Value 2N3904
SYMBOL res -448 272 R0
SYMATTR InstName R2
SYMATTR Value 5k
SYMBOL voltage -608 160 R0
WINDOW 123 24 124 Left 2
WINDOW 39 0 0 Left 2
SYMATTR Value2 AC 1
SYMATTR InstName V3
SYMATTR Value ""
SYMBOL voltage -528 -32 R0
WINDOW 123 0 0 Left 2
WINDOW 39 0 0 Left 2
SYMATTR InstName V4
SYMATTR Value 5
TEXT -1136 416 Left 2 !;tran 5us
TEXT -648 456 Left 2 !.ac dec 1000 1 10000Meg
TEXT -1216 -192 Left 2 ;At the emitter there is the signal sent to the base. Example of negative feedback.\n \nTo understand the functioning it is useful to look at the equivalent circuit with a\ncontrolled current source.
TEXT -1016 -280 Left 4 ;Emitter-Follower configuration
