Version 4.1
SHEET 1 1704 680
WIRE 80 384 80 400
WIRE 272 272 288 272
WIRE -16 96 -16 112
WIRE 80 400 288 400
WIRE 288 400 288 272
WIRE 80 400 -16 400
WIRE -16 400 -16 112
FLAG 288 400 0
WIRE 272 176 288 176
WIRE 272 144 272 160
WIRE 288 176 288 160
WIRE 288 160 272 160
WIRE 80 160 80 176
WIRE 80 304 80 288
WIRE 112 224 96 224
WIRE 80 176 80 224
WIRE 80 224 96 224
WIRE 96 224 96 288
WIRE 96 288 80 288
WIRE 208 224 192 224
WIRE 192 224 208 224
WIRE 80 80 80 64
WIRE 272 64 272 48
WIRE -16 16 -16 0
WIRE 80 64 80 0
WIRE 80 0 -16 0
WIRE 80 64 80 48
WIRE 80 48 272 48
FLAG -16 0 Vin
SYMBOL voltage -16 0 R0
WINDOW 123 0 0 Left 2
WINDOW 39 0 0 Left 2
SYMATTR InstName V1
SYMATTR Value 5
SYMBOL res 256 48 R0
SYMATTR InstName R1
SYMATTR Value 47
SYMBOL res 208 208 R90
WINDOW 0 0 56 VBottom 2
WINDOW 3 32 56 VTop 2
SYMATTR InstName R2
SYMATTR Value 4.2k
SYMBOL res 64 288 R0
SYMATTR InstName Potenziometro
SYMATTR Value {10k*(1-x)}
SYMBOL npn 208 176 R0
SYMATTR InstName Q1
SYMATTR Value 2N3904
SYMBOL res 64 64 R0
SYMATTR InstName Pot
SYMATTR Value {10k*x}
TEXT 360 128 Left 2 !.step param x 1n 0.99 0.5
TEXT 360 168 Left 2 !.tran 1s
TEXT -120 -144 Left 2 ;Adjusting the potentiometer, the current through R1 is (approximately)\nlinearly regulated.
TEXT 456 240 Left 2 ;Sizing: \n \nAssume BJT works in saturation -> Vce = 0.3. On the load the voltage drop is 4.7V,\nAssume the load draws 100 mA.\n \nBase current for the polarization is Ic/hfe. Assuming a hfe of 100 the required base\ncurrent is 100ma/100 = 1mA\n \nVbe is fixed at 0.8 V (PN junction). I set R2 so as to have exactly 1 mA of base current\ni.e. R2 = 4.2/0.001 = 4.2k
TEXT 368 -264 Left 4 ;BJT for simple current regulation
