Version 4.1
SHEET 1 1244 680
WIRE 496 208 496 224
WIRE 624 224 624 240
WIRE 64 208 64 224
WIRE -176 224 -176 240
WIRE 496 224 496 240
WIRE 496 240 624 240
WIRE 496 240 64 240
WIRE 64 240 64 224
WIRE 64 224 64 240
WIRE 64 240 -176 240
FLAG 624 240 0
WIRE -80 96 -96 96
WIRE -176 144 -176 128
WIRE -96 96 -96 128
WIRE -96 128 -176 128
WIRE 320 96 304 96
WIRE 0 96 16 96
WIRE 64 128 64 112
WIRE 304 96 64 96
WIRE 64 96 64 112
WIRE 64 112 64 96
WIRE 64 96 16 96
WIRE 496 144 496 128
WIRE 384 96 400 96
WIRE 624 144 624 128
WIRE 496 128 496 96
WIRE 496 96 400 96
WIRE 496 128 624 128
WIRE 112 144 128 144
WIRE 224 128 224 112
WIRE 128 144 128 112
WIRE 128 112 224 112
WIRE 112 192 128 192
WIRE 224 208 224 224
WIRE 128 192 128 224
WIRE 128 224 224 224
SYMBOL voltage -176 128 R0
WINDOW 123 0 0 Left 0
WINDOW 39 0 0 Left 0
SYMATTR InstName V1
SYMATTR Value 380
SYMBOL diode 320 112 R270
WINDOW 0 32 32 VTop 2
WINDOW 3 0 32 VBottom 2
SYMATTR InstName D1
SYMBOL ind -96 112 R270
WINDOW 0 32 56 VTop 2
WINDOW 3 5 56 VBottom 2
SYMATTR InstName L1
SYMATTR Value 10m
SYMBOL cap 480 144 R0
SYMATTR InstName C1
SYMATTR Value 10”
SYMBOL res 608 128 R0
SYMATTR InstName R1
SYMATTR Value 100
SYMBOL sw 64 224 R180
WINDOW 3 -57 -85 Left 2
SYMATTR Value MOSFET
SYMATTR InstName S1
SYMBOL voltage 224 112 R0
WINDOW 0 32 56 VTop 2
WINDOW 3 273 185 Bottom 2
WINDOW 123 0 0 Left 0
WINDOW 39 0 0 Left 0
SYMATTR InstName V2
SYMATTR Value PULSE(0 100 0 1n 1n 0.052m 0.0625m 1Meg)
TEXT -488 16 Left 2 !.tran 50m
TEXT 8 376 Left 2 !.model MOSFET SW(Ron=1u Roff=100Meg Vt=90)
TEXT -496 -40 Left 2 ;Switching frequency: 16 kHz
TEXT 24 -96 Left 4 ;Boost converter.
