Version 4.1
SHEET 1 1388 680
WIRE 48 320 48 336
WIRE 192 320 192 336
WIRE -64 64 -64 80
WIRE 48 336 192 336
WIRE 48 336 -64 336
WIRE -64 336 -64 80
FLAG 192 336 0
WIRE 48 48 48 32
WIRE 192 -48 192 -64
WIRE -64 -16 -64 -32
WIRE 48 32 48 -32
WIRE 48 -32 -64 -32
WIRE 48 32 48 -64
WIRE 48 -64 192 -64
WIRE 192 128 208 128
WIRE 192 32 192 48
WIRE 208 128 208 48
WIRE 208 48 192 48
WIRE 128 176 112 176
WIRE 48 128 48 144
WIRE 48 240 48 224
WIRE 112 176 112 144
WIRE 112 144 48 144
WIRE 48 144 48 224
WIRE 192 224 208 224
WIRE 192 240 192 224
SYMBOL res 32 32 R0
SYMATTR InstName R1
SYMATTR Value 1k
SYMBOL res 32 224 R0
SYMATTR InstName R2
SYMATTR Value 10k
SYMBOL res 176 224 R0
SYMATTR InstName R3
SYMATTR Value 50k
SYMBOL res 176 -64 R0
SYMATTR InstName R4
SYMATTR Value 10k
SYMBOL voltage -64 -32 R0
WINDOW 123 0 0 Left 0
WINDOW 39 0 0 Left 0
SYMATTR InstName V1
SYMATTR Value 9
SYMBOL pnp 128 224 M180
SYMATTR InstName Q1
SYMATTR Value 2N3906
TEXT -56 400 Left 2 !.tran 1 startup
TEXT 344 -80 Left 2 ;Current through R3 (Ic) is roughly equal to Ie.\n \nIe = ( Vcc - R2/(R2+R1)*V1 - 0.523 ) / R4\n \nThe assumption is that Veb = 0.523 V and Ic = Ie roughly.\n \nNote that whatever the value of R3 (be it 1 or a few hundreds of k Ohm)\nthe current through R3 is constant and roughly equal to the current through R4.\n \nFor R3 = 1Meg this is no longer true.
