Version 4.1
SHEET 1 880 680
WIRE 272 368 272 384
WIRE -96 96 -96 112
WIRE 0 96 0 112
WIRE -112 336 -112 352
WIRE 0 336 0 352
WIRE 272 384 0 384
WIRE 0 384 0 352
WIRE 0 352 -112 352
WIRE 0 352 -64 352
WIRE -64 352 -64 112
WIRE -64 112 0 112
WIRE 0 112 -96 112
FLAG 272 384 0
WIRE 96 176 112 176
WIRE 368 32 352 32
WIRE 368 176 352 176
WIRE 112 176 352 176
WIRE 352 176 352 32
WIRE 192 240 208 240
WIRE 272 288 272 272
WIRE 368 208 352 208
WIRE 208 240 208 272
WIRE 208 272 272 272
WIRE 272 272 272 208
WIRE 272 208 352 208
WIRE 448 32 464 32
WIRE 432 192 448 192
WIRE 464 32 464 192
WIRE 464 192 448 192
FLAG 448 32 OUT
WIRE 16 176 0 176
WIRE -112 256 -112 240
WIRE 0 176 -112 176
WIRE -112 176 -112 240
FLAG -112 176 Va
WIRE 112 240 96 240
WIRE 0 256 0 240
WIRE 96 240 0 240
FLAG 0 240 Vb
WIRE 400 160 400 144
WIRE -96 16 -96 0
WIRE 400 144 -48 144
WIRE -48 144 -48 0
WIRE -48 0 -96 0
FLAG -96 0 Vcc
WIRE 400 224 400 240
WIRE 0 16 0 0
WIRE 400 240 224 240
WIRE 224 240 224 0
WIRE 224 0 0 0
FLAG 0 0 Vee
SYMBOL Opamps\\LT1007 400 128 R0
SYMATTR InstName U1
SYMBOL res 112 160 R90
WINDOW 0 0 56 VBottom 2
WINDOW 3 32 56 VTop 2
SYMATTR InstName R1
SYMATTR Value 1k
SYMBOL res 208 224 R90
WINDOW 0 0 56 VBottom 2
WINDOW 3 32 56 VTop 2
SYMATTR InstName R3
SYMATTR Value 1k
SYMBOL res 288 384 R180
WINDOW 0 36 76 Left 2
WINDOW 3 36 40 Left 2
SYMATTR InstName R4
SYMATTR Value 1k
SYMBOL res 352 48 R270
WINDOW 0 32 56 VTop 2
WINDOW 3 0 56 VBottom 2
SYMATTR InstName R2
SYMATTR Value 1k
SYMBOL voltage -96 0 R0
WINDOW 123 0 0 Left 2
WINDOW 39 0 0 Left 2
SYMATTR InstName V1
SYMATTR Value 30
SYMBOL voltage 0 0 R0
WINDOW 123 0 0 Left 2
WINDOW 39 0 0 Left 2
SYMATTR InstName V2
SYMATTR Value -30
SYMBOL voltage -112 240 R0
WINDOW 123 24 124 Left 2
WINDOW 39 0 0 Left 2
SYMATTR Value2 AC 1
SYMATTR InstName V3
SYMATTR Value 5
SYMBOL voltage 0 240 R0
WINDOW 123 24 124 Left 2
WINDOW 39 0 0 Left 2
SYMATTR Value2 AC 1
SYMATTR InstName V4
SYMATTR Value 1
TEXT -248 16 Left 2 !.tran 1s
TEXT -800 136 Left 2 ;This circuit amplifies R2/R1 * (Vb  -  Va). \nSince R2 = R1, the output is simply Vb - Va.
TEXT -104 -144 Left 4 ;Difference amplifier
