Version 4.1
SHEET 1 3404 1536
WIRE -128 128 -128 144
WIRE -128 224 -128 208
WIRE -288 208 -288 224
WIRE 880 336 880 352
WIRE -608 192 -608 208
WIRE 720 784 720 800
WIRE 1136 336 1136 352
WIRE -128 144 -128 208
WIRE -128 208 -256 208
WIRE -256 208 -256 224
WIRE -256 224 -288 224
WIRE -288 224 -608 224
WIRE -608 224 -608 208
WIRE -128 208 96 208
WIRE 96 208 96 352
WIRE 96 352 880 352
WIRE 880 352 1136 352
WIRE 880 352 880 800
WIRE 880 800 720 800
FLAG 880 800 0
WIRE 400 64 400 48
WIRE 128 64 128 48
WIRE -128 48 -128 32
WIRE 400 48 128 48
WIRE 128 48 128 32
WIRE 128 32 -128 32
WIRE -288 128 -288 112
WIRE -608 112 -608 96
WIRE -288 112 -288 96
WIRE -288 96 -608 96
WIRE 128 208 128 192
WIRE 128 128 128 144
WIRE 640 464 640 480
WIRE 128 192 128 144
WIRE 128 192 368 192
WIRE 368 192 368 480
WIRE 368 480 640 480
WIRE 400 128 400 144
WIRE 400 208 400 192
WIRE 640 176 640 160
WIRE 400 144 400 192
WIRE 400 144 400 160
WIRE 400 160 640 160
WIRE 880 256 880 240
WIRE 1136 256 1136 240
WIRE 880 240 1136 240
WIRE 128 272 128 288
WIRE 400 272 400 288
WIRE -128 304 -128 320
WIRE 128 288 400 288
WIRE 128 288 128 320
WIRE 128 320 -128 320
WIRE 640 256 640 272
WIRE 640 384 640 368
WIRE 720 704 720 688
WIRE 640 272 640 368
WIRE 640 368 720 368
WIRE 720 368 720 688
FLAG 640 256 output
SYMBOL ind2 -112 144 R180
WINDOW 0 36 80 Left 2
WINDOW 3 36 40 Left 2
SYMATTR InstName L1
SYMATTR Value 1m
SYMATTR Type ind
SYMBOL ind2 -112 320 R180
WINDOW 0 36 80 Left 2
WINDOW 3 36 40 Left 2
SYMATTR InstName L2
SYMATTR Value 1m
SYMATTR Type ind
SYMBOL ind2 656 272 R180
WINDOW 0 36 80 Left 2
WINDOW 3 36 40 Left 2
SYMATTR InstName L3
SYMATTR Value 1m
SYMATTR Type ind
SYMBOL ind2 656 480 R180
WINDOW 0 36 80 Left 2
WINDOW 3 36 40 Left 2
SYMATTR InstName L4
SYMATTR Value 1m
SYMATTR Type ind
SYMBOL ind2 -272 224 R180
WINDOW 0 36 80 Left 2
WINDOW 3 36 40 Left 2
SYMATTR InstName L5
SYMATTR Value 1m
SYMATTR Type ind
SYMBOL ind2 896 352 R180
WINDOW 0 36 80 Left 2
WINDOW 3 36 40 Left 2
SYMATTR InstName L6
SYMATTR Value 1m
SYMATTR Type ind
SYMBOL voltage -608 96 R0
WINDOW 123 0 0 Left 0
WINDOW 39 24 124 Left 2
SYMATTR SpiceLine Rser=1m
SYMATTR InstName LO
SYMATTR Value SINE(0 10 7Meg)
SYMBOL voltage 1136 240 R0
WINDOW 123 0 0 Left 0
WINDOW 39 24 124 Left 2
SYMATTR SpiceLine Rser=1m
SYMATTR InstName Vrf
SYMATTR Value SINE(0 10 10Meg)
SYMBOL res 704 688 R0
SYMATTR InstName R1
SYMATTR Value 5k
SYMBOL schottky 416 128 R180
WINDOW 0 24 64 Left 2
WINDOW 3 24 0 Left 2
SYMATTR InstName D2
SYMATTR Value 1N5819
SYMATTR Description Diode
SYMATTR Type diode
SYMBOL schottky 416 272 R180
WINDOW 0 24 64 Left 2
WINDOW 3 24 0 Left 2
SYMATTR InstName D3
SYMATTR Value 1N5819
SYMATTR Description Diode
SYMATTR Type diode
SYMBOL schottky 112 208 R0
SYMATTR InstName D1
SYMATTR Value 1N5819
SYMATTR Description Diode
SYMATTR Type diode
SYMBOL schottky 112 64 R0
SYMATTR InstName D4
SYMATTR Value 1N5819
SYMATTR Description Diode
SYMATTR Type diode
TEXT -280 -32 Left 2 !K1 L1 L2 L5 1
TEXT 696 152 Left 2 !K2 L3 L4 L6 1
TEXT 1496 32 Left 2 !.tran 3u
TEXT -680 48 Left 2 ;Local oscillator
TEXT 1104 200 Left 2 ;RF signal
TEXT 104 144 Left 2 ;A
TEXT 416 144 Left 2 ;B
TEXT 200 -168 Left 4 ;Diode ring mixer
TEXT 8 -16 Left 2 ;C
TEXT 0 376 Left 2 ;D
TEXT 1504 136 Left 2 ;What the circuit does:\nIt multiplies the input signal Vrf by a square wave (+/-1) which has the same frequency of the local oscillator LO\n \nHow it works:\n \n1. When Vcd > 0 -> D1 and D4 conduct (D2 and D3 are reverse biased).\nA is at ground potential because E is at ground potential and A is in the middle of two identical diodes.\nL4 conducts and its end labelled as F is at ground potential.\nThe Vrf signal is therefore mirrored as it is at the output R1.\nIt's as if the Vrf signal is multiplied by 1.\n \n2. When Vcd < 0 -> D2 and D3 conduct (D1 and D4 are reverse biased)\nB is at ground potential because E is at ground potential and A is in the middle of two identical diodes.\nL3 conducts and its end at the node B is at ground potential.\nThe Vrf signal is mirrored reversed (!) at the output R1.\nIt's as if the Vrf signal is multiplied by -1.\n \n3. BOTTOM LINE:\nWhen local oscillator voltage is high, -> Input signal Vrf is multiplied by 1.\nWhen local oscillator voltage is low, -> Input signal Vrf is multiplied by -1.\n \nThe Vrf signal is therefore multiplied by a square wave which has a frequency equal to the frequency of the local oscillator.\n \nIf we multiply 2 sinewave toghether:\ncos(w1*t)*cos(w2*t) = 0.5 * cos((w1+w2)*t) + 0.5 * cos((w1-w2)*t)\n \nIf we use a square wave like in the circuit, we also get a lot of harmonics.\n \nIn the example in the circuit:\n-> The local oscillator LO oscillates at 7 MHz\n-> The RF signal Vrf oscillates at 10 MHz\n \nWe can expect V(output) to have two main frequency components: one at (10-7) = 3 MHz and the other at (10+7)=17 MHz. This can be seen in the FFT of the output signal
TEXT -344 488 Left 2 ;RF transformer:\n3 inductances wound\non the same magnetic\ncore
TEXT -152 168 Left 2 ;E
TEXT 656 504 Left 2 ;F
TEXT 856 704 Left 2 ;Output is = LO*squarewave\nsquarewave is either 1 or -1
LINE Normal -240 336 -240 32 2
LINE Normal -208 336 -208 32 2
LINE Normal 752 496 752 192 2
LINE Normal 784 496 784 192 2
RECTANGLE Normal 944 560 560 48 2
RECTANGLE Normal -96 592 -352 -96 2
