Version 4.1
SHEET 1 1716 680
WIRE 256 288 256 304
WIRE 48 288 48 304
WIRE 176 288 176 304
WIRE 592 224 592 240
WIRE 736 272 736 288
WIRE 864 304 864 320
WIRE -368 -304 -368 -288
WIRE -336 240 -336 256
WIRE 256 304 176 304
WIRE 176 304 48 304
WIRE 256 304 592 304
WIRE 592 304 592 240
WIRE 592 240 592 288
WIRE 592 288 736 288
WIRE 736 288 736 320
WIRE 736 320 864 320
WIRE 48 304 -336 304
WIRE -336 304 -336 256
WIRE -336 256 -384 256
WIRE -384 256 -384 -288
WIRE -384 -288 -368 -288
FLAG 864 320 0
WIRE 528 32 544 32
WIRE 672 32 656 32
WIRE 592 -48 592 -32
WIRE 592 144 592 128
WIRE 544 32 544 -32
WIRE 544 -32 592 -32
WIRE 544 32 656 32
WIRE 544 32 544 128
WIRE 544 128 592 128
WIRE -64 112 -80 112
WIRE -336 160 -336 144
WIRE -80 112 -80 144
WIRE -80 144 -336 144
WIRE 0 112 16 112
WIRE 112 112 96 112
WIRE 48 -48 48 -32
WIRE 48 208 48 192
WIRE 16 112 96 112
WIRE 16 112 16 192
WIRE 16 192 48 192
WIRE 16 112 16 -32
WIRE 16 -32 48 -32
WIRE 864 128 864 112
WIRE 736 80 752 80
WIRE 736 192 736 176
WIRE 864 112 864 80
WIRE 864 80 752 80
WIRE 752 80 752 176
WIRE 752 176 736 176
WIRE 256 224 256 208
WIRE 176 160 192 160
WIRE 176 208 176 192
WIRE 256 208 256 192
WIRE 256 192 176 192
WIRE 176 192 192 192
WIRE 192 192 192 160
WIRE 864 192 864 208
WIRE 864 224 864 208
WIRE 48 -128 48 -144
WIRE 176 -128 176 -144
WIRE 592 -128 592 -144
WIRE 736 -128 736 -144
WIRE -368 -384 -368 -400
WIRE 48 -144 176 -144
WIRE 176 -144 592 -144
WIRE 592 -144 736 -144
WIRE 48 -144 48 -400
WIRE 48 -400 -368 -400
FLAG -368 -400 Vcc
WIRE 736 -16 752 -16
WIRE 736 -48 736 -32
WIRE 752 -16 752 -32
WIRE 752 -32 736 -32
FLAG 736 -48 Vout
WIRE 464 32 448 32
WIRE 176 64 192 64
WIRE 176 -48 176 -32
WIRE 448 32 448 64
WIRE 448 64 192 64
WIRE 192 64 192 -32
WIRE 192 -32 176 -32
FLAG 176 -48 Vout_stage1
SYMBOL cap 0 96 R90
WINDOW 0 0 32 VBottom 2
WINDOW 3 32 32 VTop 2
SYMATTR InstName C1
SYMATTR Value 1µ
SYMBOL res 32 -144 R0
SYMATTR InstName R1
SYMATTR Value 4.7k
SYMBOL res 32 192 R0
SYMATTR InstName R2
SYMATTR Value 1k
SYMBOL res 160 -144 R0
SYMATTR InstName R3
SYMATTR Value 4.7k
SYMBOL res 160 192 R0
SYMATTR InstName R4
SYMATTR Value 1k
SYMBOL cap 240 224 R0
SYMATTR InstName C2
SYMATTR Value 20µ
SYMBOL npn 112 64 R0
SYMATTR InstName Q1
SYMATTR Value 2N3904
SYMBOL voltage -336 144 R0
WINDOW 123 24 124 Left 2
WINDOW 39 0 0 Left 0
SYMATTR Value2 AC 1
SYMATTR InstName V_signal
SYMATTR Value ""
SYMBOL voltage -368 -400 R0
WINDOW 123 0 0 Left 0
WINDOW 39 0 0 Left 0
SYMATTR InstName V2
SYMATTR Value 9
SYMBOL cap 528 16 R90
WINDOW 0 0 32 VBottom 2
WINDOW 3 32 32 VTop 2
SYMATTR InstName C3
SYMATTR Value 1µ
SYMBOL res 576 -144 R0
SYMATTR InstName R5
SYMATTR Value 4.7k
SYMBOL res 576 128 R0
SYMATTR InstName R6
SYMATTR Value 1k
SYMBOL res 720 -144 R0
SYMATTR InstName R7
SYMATTR Value 4.7k
SYMBOL npn 672 -16 R0
SYMATTR InstName Q2
SYMATTR Value 2N3904
SYMBOL res 720 176 R0
SYMATTR InstName R8
SYMATTR Value 1k
SYMBOL res 848 208 R0
SYMATTR InstName R9
SYMATTR Value 50
SYMBOL cap 848 128 R0
SYMATTR InstName C4
SYMATTR Value 20µ
TEXT -288 -448 Left 2 !.ac dec 1000 1 100Meg
TEXT -72 504 Left 3 ;Stage 1: +27 dB
TEXT 424 504 Left 3 ;Stage 2: +36 dB
TEXT 1184 80 Left 2 ;R9 reduces a bit the gain to stabilize the circuit
TEXT 88 -376 Left 4 ;Double stage common emitter amplifier
RECTANGLE Normal 384 544 -112 -240 2
RECTANGLE Normal 992 544 384 -240 2
