Version 4.1
SHEET 1 880 680
WIRE -160 208 -160 224
WIRE 0 208 0 224
WIRE 256 208 256 224
WIRE 368 208 368 224
WIRE 496 208 496 224
WIRE -160 224 0 224
WIRE 0 224 256 224
WIRE 256 224 368 224
WIRE 368 224 496 224
FLAG 496 224 0
WIRE -160 128 -160 112
WIRE -128 64 -144 64
WIRE -160 112 -160 64
WIRE -160 64 -144 64
WIRE 0 128 0 112
WIRE 64 64 48 64
WIRE -48 64 -32 64
WIRE 0 112 0 64
WIRE 0 64 -32 64
WIRE -32 64 48 64
WIRE 256 128 256 112
WIRE 144 64 160 64
WIRE 256 112 256 64
WIRE 256 64 160 64
WIRE 368 128 368 112
WIRE 496 128 496 112
WIRE 368 112 496 112
SYMBOL ind2 272 224 R180
WINDOW 0 36 80 Left 2
WINDOW 3 36 40 Left 2
SYMATTR InstName L1
SYMATTR Value 4m
SYMATTR Type ind
SYMBOL ind2 384 224 R180
WINDOW 0 36 80 Left 2
WINDOW 3 36 40 Left 2
SYMATTR InstName L2
SYMATTR Value 1m
SYMATTR Type ind
SYMBOL res 48 80 R270
WINDOW 0 32 56 VTop 2
WINDOW 3 0 56 VBottom 2
SYMATTR InstName R1
SYMATTR Value 5
SYMBOL res -144 80 R270
WINDOW 0 32 56 VTop 2
WINDOW 3 0 56 VBottom 2
SYMATTR InstName R2
SYMATTR Value 2
SYMBOL current -160 208 R180
WINDOW 0 24 80 Left 2
WINDOW 3 24 0 Left 2
WINDOW 123 0 0 Left 2
WINDOW 39 0 0 Left 2
SYMATTR InstName I1
SYMATTR Value SINE(0 10 159.15)
SYMBOL current 0 208 R180
WINDOW 0 24 80 Left 2
WINDOW 3 24 0 Left 2
WINDOW 123 0 0 Left 2
WINDOW 39 0 0 Left 2
SYMATTR InstName I2
SYMATTR Value 2
SYMBOL res 480 112 R0
SYMATTR InstName R3
SYMATTR Value 1
TEXT -376 72 Left 2 !.tran 20ms
TEXT 256 40 Left 2 !K L1 L2 0.9
TEXT -136 -40 Left 4 ;Example of mutually coupled inductors
