Version 4.1
SHEET 1 916 680
WIRE 608 304 608 320
WIRE 336 144 336 160
WIRE 336 208 336 192
WIRE 720 320 720 336
WIRE 608 320 608 336
WIRE 608 336 720 336
WIRE 608 320 368 320
WIRE 368 320 368 192
WIRE 368 192 336 192
WIRE 336 192 336 160
FLAG 720 336 0
WIRE 480 80 480 64
WIRE 336 80 336 64
WIRE 80 96 80 80
WIRE 480 64 336 64
WIRE 336 64 80 64
WIRE 80 64 80 80
WIRE 480 272 480 288
WIRE 336 272 336 288
WIRE 80 176 80 192
WIRE 480 288 336 288
WIRE 336 288 80 288
WIRE 80 288 80 192
WIRE 608 240 608 224
WIRE 480 144 480 160
WIRE 480 208 480 192
WIRE 720 240 720 224
WIRE 608 224 720 224
WIRE 608 224 608 192
WIRE 608 192 480 192
WIRE 480 192 480 160
FLAG 480 144 OUT
SYMBOL voltage 80 80 R0
WINDOW 123 0 0 Left 2
WINDOW 39 0 0 Left 2
SYMATTR InstName V1
SYMATTR Value SINE(0 4.86 88)
SYMBOL diode 464 80 R0
SYMATTR InstName D2
SYMATTR Value 1N4148
SYMBOL diode 352 144 R180
WINDOW 0 24 64 Left 2
WINDOW 3 55 36 Left 2
SYMATTR InstName D3
SYMATTR Value 1N4148
SYMBOL diode 496 272 R180
WINDOW 0 24 64 Left 2
WINDOW 3 -75 5 Left 2
SYMATTR InstName D4
SYMATTR Value 1N4148
SYMBOL diode 320 208 R0
WINDOW 3 -38 76 Left 2
SYMATTR InstName D5
SYMATTR Value 1N4148
SYMBOL res 704 224 R0
SYMATTR InstName R2
SYMATTR Value 250
SYMBOL cap 592 240 R0
SYMATTR InstName C1
SYMATTR Value 600µs
TEXT -336 72 Left 2 !.tran 0 0.1s 0 0.06ms
TEXT 80 -112 Left 4 ;Full bridge rectifier
TEXT -336 16 Left 2 ;Transient simulation
