Version 4.1
SHEET 1 880 680
WIRE 112 176 112 192
WIRE 208 192 208 208
WIRE 112 192 112 208
WIRE 112 208 208 208
FLAG 208 208 0
WIRE 112 112 112 96
WIRE 208 112 208 96
WIRE 112 96 208 96
FLAG 112 96 OUT
SYMBOL cap 96 112 R0
SYMATTR InstName C1
SYMATTR Value 1
SYMBOL res 192 96 R0
SYMATTR InstName R1
SYMATTR Value 1
TEXT -96 112 Left 2 !.ic V(OUT)=10
TEXT -88 64 Left 2 !.tran 5
TEXT -96 -88 Left 4 ;Example of setting initial conditions
