Version 4.1
SHEET 1 1096 680
WIRE 640 336 656 336
WIRE 144 -160 144 -144
WIRE 240 -160 240 -144
WIRE 432 -160 432 -144
WIRE 560 -160 560 -144
WIRE 656 336 752 336
WIRE 752 336 752 -144
WIRE 752 -144 560 -144
WIRE 560 -144 432 -144
WIRE 432 -144 240 -144
WIRE 240 -144 144 -144
FLAG 752 336 0
WIRE 288 96 288 112
WIRE 288 128 288 112
WIRE 128 0 112 0
WIRE 288 112 96 112
WIRE 96 112 96 0
WIRE 96 0 112 0
WIRE 288 16 288 0
WIRE 400 16 384 16
WIRE 192 16 208 16
WIRE 288 0 208 0
WIRE 208 0 208 16
WIRE 288 0 384 0
WIRE 384 0 384 16
WIRE 480 16 496 16
WIRE 544 16 528 16
WIRE 640 160 624 160
WIRE 496 16 528 16
WIRE 528 16 528 160
WIRE 528 160 624 160
WIRE 480 336 496 336
WIRE 560 336 544 336
WIRE 640 192 624 192
WIRE 496 336 544 336
WIRE 544 336 544 192
WIRE 544 192 624 192
WIRE 288 256 288 240
WIRE 288 208 288 224
WIRE 128 320 112 320
WIRE 288 240 288 224
WIRE 288 240 112 240
WIRE 112 240 112 320
WIRE 288 336 288 352
WIRE 400 336 384 336
WIRE 192 336 208 336
WIRE 288 352 208 352
WIRE 208 352 208 336
WIRE 288 352 384 352
WIRE 384 352 384 336
WIRE 624 16 640 16
WIRE 704 176 720 176
WIRE 640 16 720 16
WIRE 720 16 720 176
FLAG 624 16 OUT
WIRE 128 352 112 352
WIRE 144 -240 144 -256
WIRE 112 352 64 352
WIRE 64 352 64 -256
WIRE 64 -256 144 -256
FLAG 64 -256 Va
WIRE 128 32 112 32
WIRE 240 -240 240 -256
WIRE 112 32 80 32
WIRE 80 32 80 -272
WIRE 80 -272 240 -272
WIRE 240 -272 240 -256
FLAG 80 -272 Vb
WIRE 160 -16 160 -32
WIRE 160 304 160 288
WIRE 672 144 672 128
WIRE 432 -240 432 -256
WIRE 160 -32 224 -32
WIRE 224 -32 224 288
WIRE 224 288 160 288
WIRE 160 -32 384 -32
WIRE 384 -32 384 -256
WIRE 384 -256 432 -256
WIRE 432 -256 512 -256
WIRE 512 -256 512 128
WIRE 512 128 672 128
FLAG 384 -256 Vcc
WIRE 160 48 160 64
WIRE 160 368 160 384
WIRE 672 208 672 224
WIRE 560 -240 560 -256
WIRE 160 64 80 64
WIRE 80 64 80 384
WIRE 80 384 160 384
WIRE 160 64 256 64
WIRE 256 64 256 368
WIRE 256 368 672 368
WIRE 672 368 672 224
WIRE 672 224 736 224
WIRE 736 224 736 -256
WIRE 736 -256 560 -256
FLAG 560 -256 Vee
SYMBOL Opamps\\LT1007 160 -48 R0
SYMATTR InstName U1
SYMBOL Opamps\\LT1007 160 272 R0
SYMATTR InstName U2
SYMBOL Opamps\\LT1007 672 112 R0
SYMATTR InstName U3
SYMBOL res 272 112 R0
SYMATTR InstName Rg
SYMATTR Value 20k
SYMBOL res 272 240 R0
SYMATTR InstName R2
SYMATTR Value 10k
SYMBOL res 272 0 R0
SYMATTR InstName R1
SYMATTR Value 10k
SYMBOL res 496 0 R90
WINDOW 0 0 56 VBottom 2
WINDOW 3 32 56 VTop 2
SYMATTR InstName R3
SYMATTR Value 10k
SYMBOL res 496 320 R90
WINDOW 0 0 56 VBottom 2
WINDOW 3 32 56 VTop 2
SYMATTR InstName R4
SYMATTR Value 10k
SYMBOL res 656 320 R90
WINDOW 0 0 56 VBottom 2
WINDOW 3 32 56 VTop 2
SYMATTR InstName R6
SYMATTR Value 10k
SYMBOL res 640 0 R90
WINDOW 0 0 56 VBottom 2
WINDOW 3 32 56 VTop 2
SYMATTR InstName R5
SYMATTR Value 10k
SYMBOL voltage 144 -256 R0
WINDOW 123 0 0 Left 2
WINDOW 39 0 0 Left 2
SYMATTR InstName V1
SYMATTR Value 10
SYMBOL voltage 240 -256 R0
WINDOW 123 0 0 Left 2
WINDOW 39 0 0 Left 2
SYMATTR InstName V2
SYMATTR Value 0
SYMBOL voltage 432 -256 R0
WINDOW 123 0 0 Left 2
WINDOW 39 0 0 Left 2
SYMATTR InstName V3
SYMATTR Value 30
SYMBOL voltage 560 -256 R0
WINDOW 123 0 0 Left 2
WINDOW 39 0 0 Left 2
SYMATTR InstName V4
SYMATTR Value -30
TEXT -24 -224 Left 2 !.tran 1s
TEXT 352 48 Left 2 ;R1
TEXT 344 272 Left 2 ;R1
TEXT 432 -56 Left 2 ;R2
TEXT 440 272 Left 2 ;R2
TEXT 576 -48 Left 2 ;R3
TEXT 592 272 Left 2 ;R3
TEXT -472 160 Left 2 ;Using the blue names for the resistors:\n \nVout = (Va - Vb) * (1 + 2R1/Rg)R3/R2
TEXT -16 -392 Left 4 ;Instrumentation amplifier
