Version 4.1
SHEET 1 880 680
WIRE 0 176 -16 176
WIRE 464 208 448 208
WIRE -224 384 -224 400
WIRE -496 208 -496 224
WIRE -384 208 -384 224
WIRE -16 176 -16 224
WIRE -16 224 -384 224
WIRE -384 224 -496 224
WIRE -384 224 -384 400
WIRE -384 400 -224 400
WIRE -16 224 448 224
WIRE 448 224 448 208
FLAG -224 400 0
WIRE 16 -80 0 -80
WIRE 16 16 0 16
WIRE -80 144 -64 144
WIRE 0 144 -16 144
WIRE 0 -80 0 16
WIRE 0 16 -16 16
WIRE -16 16 -16 144
WIRE -16 144 -64 144
WIRE 432 176 448 176
WIRE 496 64 480 64
WIRE 464 176 448 176
WIRE 448 176 448 64
WIRE 448 64 480 64
WIRE -160 144 -176 144
WIRE -224 304 -224 288
WIRE -176 144 -176 288
WIRE -176 288 -224 288
WIRE 368 176 352 176
WIRE 352 176 368 176
WIRE 80 -80 96 -80
WIRE 96 16 112 16
WIRE 272 176 256 176
WIRE 64 160 80 160
WIRE 96 -80 112 -80
WIRE 112 -80 112 16
WIRE 112 16 112 160
WIRE 112 160 80 160
WIRE 80 160 80 176
WIRE 80 176 256 176
FLAG 80 -80 OUT1
WIRE 576 64 592 64
WIRE 528 192 544 192
WIRE 592 64 592 192
WIRE 592 192 544 192
FLAG 576 64 OUT2
WIRE 32 128 32 112
WIRE 496 160 496 144
WIRE -496 128 -496 112
WIRE 32 112 496 112
WIRE 496 112 496 144
WIRE 32 112 32 96
WIRE 32 96 -496 96
WIRE -496 96 -496 112
FLAG -496 96 Vcc
WIRE 32 192 32 208
WIRE 496 224 496 240
WIRE -384 128 -384 112
WIRE 32 208 32 240
WIRE 32 240 496 240
WIRE 32 208 -336 208
WIRE -336 208 -336 112
WIRE -336 112 -384 112
FLAG -384 112 Vee
SYMBOL res 112 0 R90
WINDOW 0 0 56 VBottom 2
WINDOW 3 32 56 VTop 2
SYMATTR InstName R1
SYMATTR Value 30k
SYMBOL cap 80 -96 R90
WINDOW 0 0 32 VBottom 2
WINDOW 3 32 32 VTop 2
SYMATTR InstName C1
SYMATTR Value 100”
SYMBOL res -64 128 R90
WINDOW 0 0 56 VBottom 2
WINDOW 3 32 56 VTop 2
SYMATTR InstName R2
SYMATTR Value 1k
SYMBOL voltage -224 288 R0
WINDOW 123 24 124 Left 2
WINDOW 39 0 0 Left 2
SYMATTR Value2 AC 1
SYMATTR InstName V1
SYMATTR Value PULSE(0 1 0 1n 1n 0.2s 0.4s)
SYMBOL voltage -496 112 R0
WINDOW 123 0 0 Left 2
WINDOW 39 0 0 Left 2
SYMATTR InstName V2
SYMATTR Value 30
SYMBOL voltage -384 112 R0
WINDOW 123 0 0 Left 2
WINDOW 39 0 0 Left 2
SYMATTR InstName V3
SYMATTR Value -30
SYMBOL Opamps\\LT1007 32 96 R0
SYMATTR InstName U2
SYMBOL Opamps\\LT1007 496 128 R0
SYMATTR InstName U4
SYMBOL res 368 160 R90
WINDOW 0 0 56 VBottom 2
WINDOW 3 32 56 VTop 2
SYMATTR InstName R3
SYMATTR Value 1k
SYMBOL cap 432 160 R90
WINDOW 0 0 32 VBottom 2
WINDOW 3 32 32 VTop 2
SYMATTR InstName C2
SYMATTR Value 1”
SYMBOL res 592 48 R90
WINDOW 0 0 56 VBottom 2
WINDOW 3 32 56 VTop 2
SYMATTR InstName R4
SYMATTR Value 30k
TEXT -536 320 Left 2 !.tran 0 22s 20s
TEXT -536 280 Left 2 !;ac dec 100 1 100Meg
TEXT -128 264 Left 2 ;From square to triangular wave
TEXT 320 -40 Left 2 ;Inverting derivative:\nfrom triangular to square wave
TEXT -224 -168 Left 4 ;Inverting integrator and derivative
