Version 4.1
SHEET 1 880 680
WIRE 448 240 432 240
WIRE -96 112 -96 128
WIRE 0 112 0 128
WIRE 96 112 96 128
WIRE -96 256 -96 272
WIRE 0 256 0 272
WIRE 432 240 96 240
WIRE 96 240 96 128
WIRE 96 128 0 128
WIRE 0 128 -96 128
WIRE -96 128 -144 128
WIRE -144 128 -144 272
WIRE -144 272 -96 272
WIRE -96 272 0 272
FLAG 0 272 0
WIRE 304 0 320 0
WIRE 304 96 320 96
WIRE 304 192 320 192
WIRE 464 80 448 80
WIRE 448 208 432 208
WIRE 320 0 320 96
WIRE 320 96 320 192
WIRE 320 192 320 208
WIRE 320 208 432 208
WIRE 320 96 320 80
WIRE 320 80 448 80
WIRE 544 80 560 80
WIRE 512 224 528 224
WIRE 560 80 560 224
WIRE 560 224 528 224
FLAG 544 80 Out
WIRE 224 0 208 0
WIRE -96 32 -96 16
WIRE 208 0 208 -16
WIRE 208 -16 -96 -16
WIRE -96 -16 -96 16
FLAG -96 -16 Va
WIRE 224 96 208 96
WIRE 0 32 0 16
WIRE 208 96 144 96
WIRE 144 96 144 0
WIRE 144 0 0 0
WIRE 0 0 0 16
FLAG 0 0 Vb
WIRE 224 192 208 192
WIRE 96 32 96 16
WIRE 208 192 160 192
WIRE 160 192 160 16
WIRE 160 16 96 16
FLAG 96 16 Vc
WIRE 480 192 480 176
WIRE -96 176 -96 160
WIRE 480 176 480 144
WIRE 480 144 -96 144
WIRE -96 144 -96 160
FLAG -96 144 Vcc
WIRE 480 256 480 272
WIRE 0 176 0 160
WIRE 480 272 48 272
WIRE 48 272 48 160
WIRE 48 160 0 160
FLAG 0 160 Vee
SYMBOL voltage -96 16 R0
WINDOW 3 24 96 Invisible 2
WINDOW 123 0 0 Left 2
WINDOW 39 0 0 Left 2
SYMATTR Value PULSE(0 1 0 1n 1n 100ms 200ms)
SYMATTR InstName V1
SYMBOL voltage 0 16 R0
WINDOW 3 24 96 Invisible 2
WINDOW 123 0 0 Left 2
WINDOW 39 0 0 Left 2
SYMATTR Value PULSE(0 1 0 1n 1n 100ms 200ms)
SYMATTR InstName V2
SYMBOL voltage 96 16 R0
WINDOW 3 24 96 Invisible 2
WINDOW 123 0 0 Left 2
WINDOW 39 0 0 Left 2
SYMATTR Value PULSE(0 1 0 1n 1n 100ms 200ms)
SYMATTR InstName V3
SYMBOL voltage -96 160 R0
WINDOW 123 0 0 Left 2
WINDOW 39 0 0 Left 2
SYMATTR InstName V4
SYMATTR Value 15
SYMBOL voltage 0 160 R0
WINDOW 123 0 0 Left 2
WINDOW 39 0 0 Left 2
SYMATTR InstName V5
SYMATTR Value -15
SYMBOL Opamps\\LT1007 480 160 R0
SYMATTR InstName U1
SYMBOL res 320 -16 R90
WINDOW 0 0 56 VBottom 2
WINDOW 3 32 56 VTop 2
SYMATTR InstName R1
SYMATTR Value 1k
SYMBOL res 320 80 R90
WINDOW 0 0 56 VBottom 2
WINDOW 3 32 56 VTop 2
SYMATTR InstName R2
SYMATTR Value 1k
SYMBOL res 320 176 R90
WINDOW 0 0 56 VBottom 2
WINDOW 3 32 56 VTop 2
SYMATTR InstName R3
SYMATTR Value 1k
SYMBOL res 560 64 R90
WINDOW 0 0 56 VBottom 2
WINDOW 3 32 56 VTop 2
SYMATTR InstName R4
SYMATTR Value 1k
TEXT -120 320 Left 2 !.tran 1s
TEXT -120 352 Left 2 ;Vout =-( Va + Vb + Vc)
TEXT 96 -120 Left 4 ;Inverting sum
