Version 4.1
SHEET 1 1160 680
WIRE 480 208 480 224
WIRE 160 128 144 128
WIRE 256 128 272 128
WIRE -208 208 -208 224
WIRE 480 224 272 224
WIRE 272 224 272 128
WIRE 272 128 272 144
WIRE 272 144 144 144
WIRE 144 144 144 128
WIRE 144 128 144 224
WIRE 144 224 -208 224
FLAG 480 224 0
WIRE -160 96 -176 96
WIRE -208 128 -208 112
WIRE -176 96 -176 112
WIRE -176 112 -208 112
WIRE -80 96 -64 96
WIRE 160 96 144 96
WIRE -64 96 144 96
WIRE 480 128 480 112
WIRE 256 96 272 96
WIRE 480 112 480 96
WIRE 480 96 272 96
SYMBOL tline 208 112 R0
SYMATTR InstName T1
SYMBOL voltage -208 112 R0
WINDOW 123 24 124 Left 2
WINDOW 39 0 0 Left 2
SYMATTR Value2 AC 1
SYMATTR InstName V1
SYMATTR Value PULSE(0 1 1p 1p 1p 10s)
SYMBOL res -64 80 R90
WINDOW 0 0 56 VBottom 2
WINDOW 3 32 56 VTop 2
SYMATTR InstName RS
SYMATTR Value 1k
SYMBOL res 464 112 R0
SYMATTR InstName RL
SYMATTR Value 1k
TEXT 584 104 Left 2 !.tran 3.5u
TEXT 584 144 Left 2 !;.ac dec 1000 100Meg 1G
TEXT 168 48 Left 2 ;Lossless TL
TEXT -232 -136 Left 2 ;Try \n1. matched line Rs = RL = 50 ohm both in time and frequency domain --> No reflection occurs line simply adds a delay of Td\n2. Non matched line Rs = RL = 75  Ohm --> Reflection occurs\n3. Non matched line Rs = RL = 1k Ohm --> Reflection occurs
TEXT 40 -200 Left 4 ;Lossless transmission line: DC transient
