Version 4.1
SHEET 1 880 680
WIRE 352 400 352 416
WIRE 432 80 432 96
WIRE 544 80 544 96
WIRE 16 256 16 272
WIRE 352 416 432 416
WIRE 432 416 432 96
WIRE 432 96 544 96
WIRE 352 416 16 416
WIRE 16 416 16 272
FLAG 432 416 0
WIRE 144 128 128 128
WIRE 16 176 16 160
WIRE 128 128 128 160
WIRE 128 160 16 160
WIRE 352 288 352 304
WIRE 352 320 352 304
WIRE 144 192 128 192
WIRE 352 304 128 304
WIRE 128 304 128 192
WIRE 176 240 176 256
WIRE 432 0 432 -16
WIRE 176 256 320 256
WIRE 320 256 320 -16
WIRE 320 -16 432 -16
FLAG 320 -16 Vcc
WIRE 176 80 176 64
WIRE 544 0 544 -16
WIRE 176 64 176 -32
WIRE 176 -32 544 -32
WIRE 544 -32 544 -16
FLAG 176 -32 Vee
WIRE 352 208 352 192
WIRE 288 160 304 160
WIRE 352 192 352 160
WIRE 352 160 304 160
FLAG 288 160 Vout
SYMBOL Opamps\\LT6200 176 160 M180
SYMATTR InstName U1
SYMBOL voltage 432 -16 R0
WINDOW 123 0 0 Left 0
WINDOW 39 0 0 Left 0
SYMATTR InstName V1
SYMATTR Value 2.5
SYMBOL voltage 544 -16 R0
WINDOW 123 0 0 Left 0
WINDOW 39 0 0 Left 0
SYMATTR InstName V2
SYMATTR Value -2.5
SYMBOL res 336 192 R0
SYMATTR InstName R1
SYMATTR Value 900
SYMBOL res 336 304 R0
SYMATTR InstName R2
SYMATTR Value 100
SYMBOL voltage 16 160 R0
WINDOW 123 24 124 Left 2
WINDOW 39 0 0 Left 0
SYMATTR InstName V3
SYMATTR Value ""
SYMATTR Value2 AC 1
TEXT -64 376 Left 2 !.noise V(Vout) V3 dec 100 100 40Meg
