Version 4.1
SHEET 1 880 816
WIRE 64 64 48 64
WIRE -480 0 -480 16
WIRE -384 0 -384 16
WIRE -400 192 -416 192
WIRE -208 288 -224 288
WIRE -128 416 -144 416
WIRE -64 576 -80 576
WIRE -64 720 -80 720
WIRE 48 64 48 16
WIRE 48 16 -384 16
WIRE -384 16 -480 16
WIRE -384 16 -416 16
WIRE -416 16 -416 192
WIRE -416 192 -416 288
WIRE -416 288 -224 288
WIRE -224 288 -224 416
WIRE -224 416 -144 416
WIRE -144 416 -144 576
WIRE -144 576 -80 576
WIRE -80 576 -80 720
FLAG -64 720 0
WIRE 64 192 80 192
WIRE 96 416 112 416
WIRE 80 288 96 288
WIRE 96 576 112 576
WIRE 96 720 112 720
WIRE 192 96 176 96
WIRE 80 192 96 192
WIRE 96 192 96 288
WIRE 96 288 112 288
WIRE 112 288 112 416
WIRE 112 416 112 576
WIRE 112 576 112 720
WIRE 80 192 80 96
WIRE 80 96 176 96
FLAG 80 96 A
WIRE 144 64 160 64
WIRE 176 -48 160 -48
WIRE 192 64 176 64
WIRE 160 64 176 64
WIRE 160 64 160 -48
WIRE -16 192 -32 192
WIRE -320 192 -304 192
WIRE -32 192 -304 192
WIRE 0 288 -16 288
WIRE -128 288 -112 288
WIRE -16 288 -112 288
WIRE 16 416 0 416
WIRE -48 416 -32 416
WIRE 0 416 -32 416
WIRE 256 -48 272 -48
WIRE 256 80 272 80
WIRE 272 -48 272 80
FLAG 256 -48 OUT
WIRE 16 576 0 576
WIRE 16 576 32 576
FLAG 0 576 P001
WIRE 16 720 0 720
WIRE 16 720 32 720
FLAG 0 720 P002
WIRE 224 48 224 32
WIRE -480 -80 -480 -96
WIRE 224 32 -432 32
WIRE -432 32 -432 -96
WIRE -432 -96 -480 -96
FLAG -480 -96 Vcc
WIRE 224 112 224 128
WIRE -384 -80 -384 -96
WIRE 224 128 -336 128
WIRE -336 128 -336 -96
WIRE -336 -96 -384 -96
FLAG -384 -96 Vee
SYMBOL Opamps\\LT1007 224 16 R0
SYMATTR InstName U1
SYMBOL voltage -480 -96 R0
WINDOW 123 0 0 Left 2
WINDOW 39 0 0 Left 2
SYMATTR InstName V1
SYMATTR Value 50
SYMBOL voltage -384 -96 R0
WINDOW 123 0 0 Left 2
WINDOW 39 0 0 Left 2
SYMATTR InstName V2
SYMATTR Value -50
SYMBOL res 160 48 R90
WINDOW 0 0 56 VBottom 2
WINDOW 3 32 56 VTop 2
SYMATTR InstName R1
SYMATTR Value 10k
SYMBOL res 272 -64 R90
WINDOW 0 0 56 VBottom 2
WINDOW 3 32 56 VTop 2
SYMATTR InstName R2
SYMATTR Value 40k
SYMBOL res 80 176 R90
WINDOW 0 0 56 VBottom 2
WINDOW 3 32 56 VTop 2
SYMATTR InstName R3
SYMATTR Value 10k
SYMBOL res 112 400 R90
WINDOW 0 0 56 VBottom 2
WINDOW 3 32 56 VTop 2
SYMATTR InstName R4
SYMATTR Value 10k
SYMBOL res 96 272 R90
WINDOW 0 0 56 VBottom 2
WINDOW 3 32 56 VTop 2
SYMATTR InstName R5
SYMATTR Value 10k
SYMBOL voltage -304 192 R90
WINDOW 0 -32 56 VBottom 2
WINDOW 3 32 56 VTop 2
WINDOW 123 0 0 Left 2
WINDOW 39 0 0 Left 2
SYMATTR InstName V3
SYMATTR Value SINE(0 1 1)
SYMBOL voltage -112 288 R90
WINDOW 0 -32 56 VBottom 2
WINDOW 3 32 56 VTop 2
WINDOW 123 0 0 Left 2
WINDOW 39 0 0 Left 2
SYMATTR InstName V4
SYMATTR Value SINE(0 1 1)
SYMBOL voltage -32 416 R90
WINDOW 0 -32 56 VBottom 2
WINDOW 3 32 56 VTop 2
WINDOW 123 0 0 Left 2
WINDOW 39 0 0 Left 2
SYMATTR InstName V5
SYMATTR Value SINE(0 10 1)
SYMBOL res 112 560 R90
WINDOW 0 0 56 VBottom 2
WINDOW 3 32 56 VTop 2
SYMATTR InstName R6
SYMATTR Value 10k
SYMBOL voltage 32 576 R90
WINDOW 0 -32 56 VBottom 2
WINDOW 3 32 56 VTop 2
WINDOW 123 0 0 Left 2
WINDOW 39 0 0 Left 2
SYMATTR InstName V6
SYMATTR Value SINE(0 2 1)
SYMBOL voltage 32 720 R90
WINDOW 0 -32 56 VBottom 2
WINDOW 3 32 56 VTop 2
WINDOW 123 0 0 Left 2
WINDOW 39 0 0 Left 2
SYMATTR InstName V7
SYMATTR Value SINE(0 1 1)
SYMBOL res 112 704 R90
WINDOW 0 0 56 VBottom 2
WINDOW 3 32 56 VTop 2
SYMATTR InstName R7
SYMATTR Value 10k
TEXT -288 -112 Left 2 !.tran 1s
TEXT -1048 560 Left 2 ;Voltage on bus A is the average of the voltages in the input (assuming that the resistors\napplied to each signal are the same). The amplifier is an opamp in non inverting \nconfiguration so Vout is given by V+ * (1+R2/R1). If I want the sum of the signals\nI just need to set 1 + R2/R1 equal to the number of signals in the sum. Therefore,\n R2/R1 needs to be equal to the number of signals - 1.\n \nIn this case: R2/R1 = 5 - 1 = 4
TEXT -288 -288 Left 4 ;Non inverting sum
