Version 4.1
SHEET 1 880 680
WIRE 80 16 64 16
WIRE 208 288 208 304
WIRE 0 288 0 304
WIRE -256 48 -256 64
WIRE -160 48 -160 64
WIRE 64 16 64 64
WIRE 64 64 -160 64
WIRE -160 64 -256 64
WIRE 64 16 48 16
WIRE 48 16 48 304
WIRE 48 304 0 304
WIRE 0 304 208 304
FLAG 208 304 0
WIRE 144 16 160 16
WIRE 256 16 240 16
WIRE 256 144 240 144
WIRE 160 16 240 16
WIRE 240 16 240 144
WIRE 336 16 352 16
WIRE 320 160 336 160
WIRE 352 16 352 160
WIRE 352 160 336 160
WIRE 80 176 64 176
WIRE 0 208 0 192
WIRE 64 176 64 192
WIRE 64 192 0 192
WIRE 144 176 160 176
WIRE 208 208 208 192
WIRE 256 176 240 176
WIRE 160 176 160 192
WIRE 160 192 208 192
WIRE 208 192 208 176
WIRE 208 176 240 176
WIRE 288 128 288 112
WIRE -256 -32 -256 -48
WIRE 288 112 -208 112
WIRE -208 112 -208 -48
WIRE -208 -48 -256 -48
FLAG -256 -48 Vcc
WIRE 288 192 288 208
WIRE -160 -32 -160 -48
WIRE 288 208 368 208
WIRE 368 208 368 -48
WIRE 368 -48 -160 -48
FLAG -160 -48 Vee
SYMBOL res 352 0 R90
WINDOW 0 0 56 VBottom 2
WINDOW 3 32 56 VTop 2
SYMATTR InstName R1
SYMATTR Value 10k
SYMBOL res 224 304 R180
WINDOW 0 36 76 Left 2
WINDOW 3 36 40 Left 2
SYMATTR InstName R2
SYMATTR Value 10k
SYMBOL cap 144 160 R90
WINDOW 0 0 32 VBottom 2
WINDOW 3 32 32 VTop 2
SYMATTR InstName C1
SYMATTR Value 100”
SYMBOL cap 144 0 R90
WINDOW 0 0 32 VBottom 2
WINDOW 3 32 32 VTop 2
SYMATTR InstName C2
SYMATTR Value 100”
SYMBOL voltage 0 192 R0
WINDOW 3 24 151 Left 2
WINDOW 123 24 124 Left 2
WINDOW 39 0 0 Left 2
SYMATTR Value PULSE(0 1 0 100m 100m 1n 200m)
SYMATTR Value2 AC 1
SYMATTR InstName V1
SYMBOL Opamps\\LT1007 288 96 R0
SYMATTR InstName U2
SYMBOL voltage -256 -48 R0
WINDOW 123 0 0 Left 2
WINDOW 39 0 0 Left 2
SYMATTR InstName V2
SYMATTR Value 10
SYMBOL voltage -160 -48 R0
WINDOW 123 0 0 Left 2
WINDOW 39 0 0 Left 2
SYMATTR InstName V3
SYMATTR Value -10
TEXT -296 144 Left 2 !;ac dec 1000 1 1000Meg
TEXT -296 112 Left 2 !.tran 500m
TEXT -168 -152 Left 4 ;Non inverting derivative
