Version 4.1
SHEET 1 880 680
WIRE 192 336 192 352
WIRE 80 80 64 80
WIRE -48 368 -48 384
WIRE -176 96 -176 112
WIRE -96 96 -96 112
WIRE 192 352 192 384
WIRE 192 384 -48 384
WIRE -48 384 -96 384
WIRE -96 384 -96 112
WIRE -96 112 -176 112
WIRE -96 112 64 112
WIRE 64 112 64 80
FLAG 192 384 0
WIRE 272 80 256 80
WIRE 160 80 176 80
WIRE 256 192 240 192
WIRE 256 80 176 80
WIRE 256 80 240 80
WIRE 240 80 240 192
WIRE 192 272 192 256
WIRE 144 256 160 256
WIRE 256 224 240 224
WIRE 192 256 160 256
WIRE 192 256 192 224
WIRE 192 224 240 224
WIRE 64 256 48 256
WIRE -48 288 -48 272
WIRE 48 256 48 272
WIRE 48 272 -48 272
WIRE 288 176 288 160
WIRE -176 16 -176 0
WIRE 288 160 -224 160
WIRE -224 160 -224 0
WIRE -224 0 -176 0
FLAG -224 0 Vcc
WIRE 288 240 288 256
WIRE -96 16 -96 0
WIRE 288 256 208 256
WIRE 208 256 208 0
WIRE 208 0 -96 0
FLAG -96 0 Vee
WIRE 336 80 352 80
WIRE 320 208 336 208
WIRE 352 80 352 208
WIRE 352 208 336 208
FLAG 336 80 out
SYMBOL cap 176 272 R0
SYMATTR InstName C1
SYMATTR Value 10”
SYMBOL cap 336 64 R90
WINDOW 0 0 32 VBottom 2
WINDOW 3 32 32 VTop 2
SYMATTR InstName C2
SYMATTR Value 10”
SYMBOL res 176 64 R90
WINDOW 0 0 56 VBottom 2
WINDOW 3 32 56 VTop 2
SYMATTR InstName R1
SYMATTR Value 10k
SYMBOL res 160 240 R90
WINDOW 0 0 56 VBottom 2
WINDOW 3 32 56 VTop 2
SYMATTR InstName R2
SYMATTR Value 10k
SYMBOL voltage -48 272 R0
WINDOW 3 24 152 Left 2
WINDOW 123 24 124 Left 2
WINDOW 39 0 0 Left 2
SYMATTR Value PULSE(1 -1 0 1n 1n 100m 200m)
SYMATTR Value2 AC 1
SYMATTR InstName V1
SYMBOL Opamps\\LT1007 288 144 R0
SYMATTR InstName U2
SYMBOL voltage -176 0 R0
WINDOW 123 0 0 Left 2
WINDOW 39 0 0 Left 2
SYMATTR InstName V2
SYMATTR Value 10
SYMBOL voltage -96 0 R0
WINDOW 123 0 0 Left 2
WINDOW 39 0 0 Left 2
SYMATTR InstName V3
SYMATTR Value -10
TEXT -296 216 Left 2 !;ac dec 1000 1m 1000Meg
TEXT -304 256 Left 2 !.lib opamp.sub
TEXT -304 288 Left 2 !.tran 1 startup
TEXT -72 -80 Left 4 ;Non inverting integrator
