Version 4.1
SHEET 1 1748 1944
WIRE 704 272 704 288
WIRE 576 1104 576 1120
WIRE 32 96 32 112
WIRE 112 96 112 112
WIRE -256 288 -256 304
WIRE -224 96 -224 112
WIRE -128 96 -128 112
WIRE -192 1136 -192 1152
WIRE 704 288 704 352
WIRE 704 352 112 352
WIRE 112 352 112 112
WIRE 112 112 32 112
WIRE 32 112 -128 112
WIRE -128 112 -224 112
WIRE -224 112 -208 112
WIRE -208 112 -208 304
WIRE -208 304 -256 304
WIRE -256 304 -256 1152
WIRE -256 1152 -192 1152
WIRE -192 1152 -192 1184
WIRE -192 1184 576 1184
WIRE 576 1184 576 1120
FLAG 576 1184 0
WIRE 432 160 448 160
WIRE 432 208 448 208
WIRE 704 192 704 176
WIRE 224 144 208 144
WIRE 448 160 448 208
WIRE 448 160 464 160
WIRE 464 160 464 48
WIRE 464 48 208 48
WIRE 208 48 208 144
WIRE 448 160 448 176
WIRE 448 176 704 176
WIRE 368 112 352 112
WIRE 368 256 352 256
WIRE 288 160 304 160
WIRE 352 112 352 160
WIRE 352 160 304 160
WIRE 304 160 304 256
WIRE 304 256 352 256
WIRE 224 176 208 176
WIRE -256 208 -256 192
WIRE 208 176 208 192
WIRE 208 192 -256 192
WIRE 352 976 368 976
WIRE 352 1056 368 1056
WIRE 576 1024 576 1008
WIRE 32 992 16 992
WIRE 368 976 368 1056
WIRE 368 976 368 1008
WIRE 368 1008 576 1008
WIRE 368 976 384 976
WIRE 384 976 384 848
WIRE 384 848 16 848
WIRE 16 848 16 992
WIRE 304 960 288 960
WIRE 304 1136 288 1136
WIRE 96 1008 112 1008
WIRE 288 960 288 1136
WIRE 288 960 288 1008
WIRE 288 1008 112 1008
WIRE 32 1024 16 1024
WIRE -192 1056 -192 1040
WIRE 16 1024 16 1040
WIRE 16 1040 -192 1040
WIRE 432 64 448 64
WIRE -224 16 -224 0
WIRE 448 64 448 -32
WIRE 448 -32 -224 -32
WIRE -224 -32 -224 0
FLAG -224 -32 V+
WIRE 432 304 448 304
WIRE -128 16 -128 0
WIRE 448 304 448 336
WIRE 448 336 -80 336
WIRE -80 336 -80 0
WIRE -80 0 -128 0
FLAG -128 0 V-
WIRE 352 880 368 880
WIRE 256 128 256 112
WIRE 64 976 64 960
WIRE 32 16 32 0
WIRE 368 880 368 864
WIRE 368 864 64 864
WIRE 64 864 64 960
WIRE 368 880 368 320
WIRE 368 320 320 320
WIRE 320 320 320 112
WIRE 320 112 256 112
WIRE 256 112 256 -16
WIRE 256 -16 32 -16
WIRE 32 -16 32 0
FLAG 32 -16 Vcc
WIRE 352 1152 368 1152
WIRE 256 192 256 208
WIRE 64 1040 64 1056
WIRE 112 16 112 0
WIRE 368 1152 368 1168
WIRE 368 1168 64 1168
WIRE 64 1168 64 1056
WIRE 64 1056 256 1056
WIRE 256 1056 256 208
WIRE 256 208 160 208
WIRE 160 208 160 0
WIRE 160 0 112 0
FLAG 112 0 Vee
SYMBOL voltage 32 0 R0
WINDOW 123 0 0 Left 2
WINDOW 39 0 0 Left 2
SYMATTR InstName V1
SYMATTR Value 15
SYMBOL voltage 112 0 R0
WINDOW 123 0 0 Left 2
WINDOW 39 0 0 Left 2
SYMATTR InstName V2
SYMATTR Value -15
SYMBOL voltage -256 192 R0
WINDOW 123 0 0 Left 2
WINDOW 39 0 0 Left 2
SYMATTR InstName V3
SYMATTR Value SINE(0 1 5 0 0 0 0)
SYMBOL npn 368 64 R0
SYMATTR InstName Q1
SYMATTR Value 2N3904
SYMBOL pnp 368 304 M180
SYMATTR InstName Q2
SYMATTR Value 2N3906
SYMBOL res 688 176 R0
SYMATTR InstName R1
SYMATTR Value 2.5
SYMBOL Opamps\\LT1007 256 96 R0
SYMATTR InstName U1
SYMBOL voltage -224 0 R0
WINDOW 123 0 0 Left 2
WINDOW 39 0 0 Left 2
SYMATTR InstName V4
SYMATTR Value 1.5
SYMBOL voltage -128 0 R0
WINDOW 123 0 0 Left 2
WINDOW 39 0 0 Left 2
SYMATTR InstName V5
SYMATTR Value -1.5
SYMBOL nmos 304 880 R0
SYMATTR InstName M1
SYMATTR Value AO6408
SYMBOL pmos 304 1056 R0
SYMATTR InstName M2
SYMATTR Value AO6407
SYMBOL res 560 1008 R0
SYMATTR InstName R2
SYMATTR Value 10k
SYMBOL voltage -192 1040 R0
WINDOW 123 0 0 Left 2
WINDOW 39 0 0 Left 2
SYMATTR InstName V8
SYMATTR Value SINE(0 1 5)
SYMBOL Opamps\\LT1007 64 944 R0
SYMATTR InstName U2
TEXT -424 -288 Left 2 !.tran 1
TEXT -248 -296 Left 2 ;Amplificatore di tipo push & pull con BJT. Allows to amplify a negative signal and can\nsupply more current than an opamp.\n \nNeeds dual rail power supply.\n \nKeep BJT dissipated power low.
TEXT -240 656 Left 2 ;Push & pull with mosfets.\nCan handle more current than BJTs
TEXT -24 -448 Left 4 ;Push & Pull amplifier
