Version 4.1
SHEET 1 1972 680
WIRE 1296 48 1296 64
WIRE 1488 64 1488 80
WIRE 880 80 880 96
WIRE 128 192 128 208
WIRE -96 64 -96 80
WIRE -288 -256 -288 -240
WIRE -192 -256 -192 -240
WIRE 1296 64 1296 80
WIRE 1296 80 1488 80
WIRE 1296 64 1296 96
WIRE 1296 96 880 96
WIRE 880 96 880 208
WIRE 880 208 128 208
WIRE 128 208 -96 208
WIRE -96 208 -96 80
WIRE -96 80 -192 80
WIRE -192 80 -192 -240
WIRE -192 -240 -288 -240
FLAG 880 208 0
WIRE 208 -48 192 -48
WIRE -96 -16 -96 -32
WIRE 192 -48 192 -32
WIRE 192 -32 -96 -32
WIRE 752 -32 736 -32
WIRE 272 -32 288 -32
WIRE 736 -32 288 -32
WIRE 1168 -32 1152 -32
WIRE 832 -32 848 -32
WIRE 880 0 880 -16
WIRE 1152 -32 1152 -16
WIRE 1152 -16 880 -16
WIRE 880 -16 880 -32
WIRE 880 -32 848 -32
WIRE 1296 -16 1296 -32
WIRE 1376 -32 1360 -32
WIRE 1248 -32 1264 -32
WIRE 1296 -32 1264 -32
WIRE 1296 -32 1360 -32
WIRE 1440 -32 1456 -32
WIRE 1488 -16 1488 -32
WIRE 1456 -32 1488 -32
WIRE 208 -16 192 -16
WIRE 128 112 128 96
WIRE 192 -16 192 96
WIRE 192 96 128 96
WIRE 240 -64 240 -80
WIRE -288 -336 -288 -352
WIRE 240 -80 -240 -80
WIRE -240 -80 -240 -352
WIRE -240 -352 -288 -352
FLAG -288 -352 Vcc
WIRE 240 0 240 16
WIRE -192 -336 -192 -352
WIRE 240 16 -48 16
WIRE -48 16 -48 -352
WIRE -48 -352 -192 -352
FLAG -192 -352 Vee
SYMBOL voltage 128 96 R0
WINDOW 123 0 0 Left 0
WINDOW 39 0 0 Left 0
SYMATTR InstName V1
SYMATTR Value PULSE(-1 1 0 5u 5u 0 10u)
SYMBOL voltage -96 -32 R0
WINDOW 123 0 0 Left 0
WINDOW 39 0 0 Left 0
SYMATTR InstName V2
SYMATTR Value SINE(0 1 1k)
SYMBOL Comparators\\LT1720 240 -96 R0
SYMATTR InstName U1
SYMBOL voltage -288 -352 R0
WINDOW 123 0 0 Left 0
WINDOW 39 0 0 Left 0
SYMATTR InstName V3
SYMATTR Value 5
SYMBOL voltage -192 -352 R0
WINDOW 123 0 0 Left 0
WINDOW 39 0 0 Left 0
SYMATTR InstName V4
SYMATTR Value -5
SYMBOL ind 1264 -48 R90
WINDOW 0 5 56 VBottom 2
WINDOW 3 32 56 VTop 2
SYMATTR InstName L1
SYMATTR Value 25.3µ
SYMBOL cap 1280 -16 R0
SYMATTR InstName C1
SYMATTR Value 10µ
SYMBOL cap 1440 -48 R90
WINDOW 0 0 32 VBottom 2
WINDOW 3 32 32 VTop 2
SYMATTR InstName C2
SYMATTR Value 1.591µ
SYMBOL res 1472 -32 R0
SYMATTR InstName R2
SYMATTR Value 1k
SYMBOL res 736 -16 R270
WINDOW 0 32 56 VTop 2
WINDOW 3 0 56 VBottom 2
SYMATTR InstName R1
SYMATTR Value 1k
SYMBOL res 864 -16 R0
SYMATTR InstName R3
SYMATTR Value 20k
TEXT -80 -240 Left 2 !.tran 55m
TEXT 1544 -48 Left 2 ;Band pass filter out -> V2 reappears
TEXT 152 248 Left 2 ;Carrier: modulating signal triangular wave
TEXT -208 -8 Left 2 ;Signal
TEXT 520 400 Left 2 ;PWM modulation
TEXT 632 -440 Left 4 ;PWM modulation and demodulation
RECTANGLE Normal 1968 176 1136 -176 2
RECTANGLE Normal 720 432 -240 -160 2
