Version 4.1
SHEET 1 880 680
WIRE 592 176 592 192
WIRE 352 192 352 208
WIRE 80 192 80 208
WIRE 592 192 592 208
WIRE 592 208 352 208
WIRE 352 208 80 208
FLAG 592 208 0
WIRE 176 48 160 48
WIRE 80 112 80 96
WIRE 160 48 160 96
WIRE 160 96 80 96
WIRE 240 48 256 48
WIRE 448 48 432 48
WIRE 352 112 352 96
WIRE 256 48 256 96
WIRE 256 96 352 96
WIRE 352 96 352 48
WIRE 352 48 432 48
WIRE 592 112 592 96
WIRE 528 48 544 48
WIRE 592 96 592 48
WIRE 592 48 544 48
FLAG 528 48 OUT
SYMBOL voltage 80 96 R0
WINDOW 123 24 124 Left 2
WINDOW 39 0 0 Left 2
SYMATTR Value2 AC 1
SYMATTR InstName V1
SYMATTR Value SINE(1 1 25000)
SYMBOL res 544 32 R90
WINDOW 0 0 56 VBottom 2
WINDOW 3 32 56 VTop 2
SYMATTR InstName R1
SYMATTR Value 1
SYMBOL cap 576 112 R0
SYMATTR InstName C1
SYMATTR Value 100µ
SYMBOL cap 240 32 R90
WINDOW 0 0 32 VBottom 2
WINDOW 3 32 32 VTop 2
SYMATTR InstName C2
SYMATTR Value 100µ
SYMBOL res 336 96 R0
SYMATTR InstName R2
SYMATTR Value 1
TEXT -256 96 Left 2 !.ac dec 1000 10 100k
TEXT 64 -96 Left 4 ;RC band pass filter
TEXT -256 56 Left 2 ;Frequency domain analysis
