Version 4.1
SHEET 1 1272 680
WIRE 320 160 320 176
WIRE 624 160 624 176
WIRE -112 176 -112 192
WIRE 320 176 624 176
WIRE 320 176 320 192
WIRE 320 192 -112 192
FLAG 320 192 0
WIRE 160 48 144 48
WIRE -112 96 -112 80
WIRE 144 48 144 80
WIRE 144 80 -112 80
WIRE 320 96 320 80
WIRE 240 48 256 48
WIRE 480 48 464 48
WIRE 320 80 320 48
WIRE 320 48 256 48
WIRE 320 48 464 48
FLAG 240 48 Output_low_pass_1
WIRE 624 96 624 80
WIRE 560 48 576 48
WIRE 624 80 624 48
WIRE 624 48 576 48
FLAG 560 48 Output_low_pass_2
IOPIN 448 -96 Out
IOPIN 864 48 Out
SYMBOL res 144 64 R270
WINDOW 0 32 56 VTop 2
WINDOW 3 0 56 VBottom 2
SYMATTR InstName R1
SYMATTR Value 1
SYMBOL cap 304 96 R0
SYMATTR InstName C1
SYMATTR Value 100”
SYMBOL voltage -112 80 R0
WINDOW 123 24 124 Left 2
WINDOW 39 0 0 Left 2
SYMATTR Value2 AC 1
SYMATTR InstName V1
SYMATTR Value SINE(0 1)
SYMBOL res 464 64 R270
WINDOW 0 32 56 VTop 2
WINDOW 3 0 56 VBottom 2
SYMATTR InstName R3
SYMATTR Value 1
SYMBOL cap 608 96 R0
SYMATTR InstName C2
SYMATTR Value 100”
TEXT -128 -200 Left 4 ;Two RC low pass filter cascaded in series
TEXT -104 -56 Left 2 !.ac dec 1000 1 1Meg
TEXT -104 -104 Left 2 ;Frequency domain analysis
RECTANGLE Normal 416 304 144 -16 2
RECTANGLE Normal 736 304 464 -16 2
