Version 4.1
SHEET 1 880 680
WIRE 240 224 240 240
WIRE 64 224 64 240
WIRE 240 240 64 240
FLAG 240 240 0
WIRE 128 96 112 96
WIRE 64 144 64 128
WIRE 112 96 112 128
WIRE 112 128 64 128
WIRE 240 160 240 144
WIRE 208 96 224 96
WIRE 240 144 240 96
WIRE 240 96 224 96
SYMBOL res 224 80 R90
WINDOW 0 0 56 VBottom 2
WINDOW 3 32 56 VTop 2
SYMATTR InstName R1
SYMATTR Value 10
SYMBOL cap 224 160 R0
SYMATTR InstName C1
SYMATTR Value 10m
SYMBOL voltage 64 128 R0
WINDOW 123 0 0 Left 2
WINDOW 39 0 0 Left 2
WINDOW 3 81 136 Left 2
SYMATTR InstName V1
SYMATTR Value PULSE(-200 200 0 500m 0.001u 0.001u 500m 10)
TEXT 32 280 Left 2 !.tran 10s
TEXT 312 112 Left 2 ;Sawtooth wave
