Version 4.1
SHEET 1 1164 680
WIRE 400 192 400 208
WIRE 80 192 80 208
WIRE 400 208 80 208
FLAG 400 208 0
WIRE 208 48 192 48
WIRE 80 112 80 96
WIRE 192 48 192 96
WIRE 192 96 80 96
WIRE 288 48 304 48
WIRE 400 112 400 96
WIRE 304 48 304 96
WIRE 304 96 400 96
FLAG 288 48 OUT
SYMBOL voltage 80 96 R0
WINDOW 123 24 124 Left 2
WINDOW 39 0 0 Left 2
SYMATTR Value2 AC 1
SYMATTR InstName Vin
SYMATTR Value SINE(1 1 25000)
SYMBOL ind 304 32 R90
WINDOW 0 5 56 VBottom 2
WINDOW 3 32 56 VTop 2
SYMATTR InstName L1
SYMATTR Value 100”
SYMBOL res 384 96 R0
SYMATTR InstName R1
SYMATTR Value 1
TEXT 448 304 Left 2 !.ac dec 1000 10 100k
TEXT 80 -248 Left 4 ;RL low pass filter
TEXT 80 -192 Left 2 ;Notes:\n1) The inductor lets through all the constant voltage. It lets through the DC offset in this case.\n \nDesign:\n1) Cut-off frequency is L/(2*pi*R) = 1.592kHz.\nAt cut off there is attenuation of -3 dB (by definition). That is Vout = Vin/sqrt(2)
