Version 4.1
SHEET 1 1548 680
WIRE 192 320 192 336
WIRE 496 416 512 416
WIRE 16 320 16 336
WIRE 640 400 640 416
WIRE -112 112 -112 128
WIRE 192 336 16 336
WIRE 16 336 -112 336
WIRE -112 336 -112 128
WIRE 192 336 192 432
WIRE 192 432 512 432
WIRE 512 432 512 416
WIRE 512 416 640 416
FLAG 512 432 0
WIRE 16 48 16 32
WIRE 192 16 192 0
WIRE 640 96 640 80
WIRE -112 32 -112 16
WIRE 16 32 16 16
WIRE 16 16 -112 16
WIRE 16 32 16 0
WIRE 16 0 192 0
WIRE 192 0 640 0
WIRE 640 0 640 80
WIRE 192 128 208 128
WIRE 192 96 192 112
WIRE 208 128 208 112
WIRE 208 112 192 112
WIRE 128 176 112 176
WIRE 16 128 16 144
WIRE 16 240 16 224
WIRE 112 176 112 144
WIRE 112 144 16 144
WIRE 16 144 16 224
WIRE 192 256 192 240
WIRE 192 224 208 224
WIRE 352 256 336 256
WIRE 192 240 208 240
WIRE 208 240 208 224
WIRE 192 240 336 240
WIRE 336 240 336 256
WIRE 496 320 512 320
WIRE 416 304 432 304
WIRE 640 176 640 192
WIRE 640 320 640 304
WIRE 512 320 512 304
WIRE 512 304 432 304
WIRE 512 304 640 304
WIRE 640 304 640 192
WIRE 432 368 416 368
WIRE 352 352 336 352
WIRE 416 368 336 368
WIRE 336 368 336 352
SYMBOL res 0 32 R0
SYMATTR InstName R1
SYMATTR Value 1k
SYMBOL res 0 224 R0
SYMATTR InstName R2
SYMATTR Value 10k
SYMBOL cap 176 256 R0
SYMATTR InstName C1
SYMATTR Value 100n
SYMBOL pnp 128 224 M180
SYMATTR InstName Q1
SYMATTR Value BC640
SYMBOL res 176 0 R0
SYMATTR InstName R3
SYMATTR Value 10k
SYMBOL voltage -112 16 R0
WINDOW 123 0 0 Left 0
WINDOW 39 0 0 Left 0
SYMATTR InstName V1
SYMATTR Value 9
SYMBOL npn 432 320 R0
SYMATTR InstName Q2
SYMATTR Value BC337-40
SYMBOL pnp 416 352 R180
SYMATTR InstName Q3
SYMATTR Value BC640
SYMBOL res 624 80 R0
SYMATTR InstName R4
SYMATTR Value 10k
SYMBOL res 624 304 R0
SYMATTR InstName R5
SYMATTR Value 10k
TEXT 104 -152 Left 4 ;Sawtooth oscillator
TEXT 760 -80 Left 2 ;Veb_Q1 = 0.513 V (measured)\nVR3 = 0.3065 V (measured)\nEstimated emitter current (Q1) = VR3/10000 = 30.65uA\n \nIe = (Vcc - Veb - R2/(R2+R1)*Vcc)/R3 \nIe = (1+ beta)*Ic\n \nassuming beta >> 1 then Ie = Ic\n \nThen capacitor needs a time t to rise to a voltage equal to 4.5V + Veb\nrequired to turn on Q3 and in turn turning on Q2.\n \nt = (R5/(R4+R5)*Vcc + Veb) * C / Ic\nt = (4.50+0.6)*100*10**(-9)/Ic = 16.6 ms\n \nNeglecting discharging time which is quite fast, we get a frequency of\nf = 1/t = 60.09 Hz while the measured one is 62 Hz. Quite close.\n \n \nTo increase frequency:\n- Reduce C\n- Reduce VA\n- Increase Ic (reduce R3)\n \nNotes:\n1) Better to use polyester capacitors\n2) Circuit has been tested and works
TEXT 208 120 Left 2 ;e
TEXT 112 144 Left 2 ;b
TEXT 160 240 Left 2 ;c
TEXT 664 288 Left 2 ;A
TEXT 256 224 Left 2 ;OUT
