Version 4.1
SHEET 1 1132 680
WIRE 208 320 208 336
WIRE 64 320 64 336
WIRE 352 176 352 192
WIRE 208 336 64 336
WIRE 208 336 352 336
WIRE 352 336 352 192
FLAG 352 336 0
WIRE 64 32 64 16
WIRE 208 32 208 16
WIRE 352 96 352 80
WIRE 64 16 208 16
WIRE 208 16 352 16
WIRE 352 16 352 80
WIRE -112 128 -128 128
WIRE -288 144 -288 128
WIRE -128 128 -288 128
WIRE 64 96 64 112
WIRE 64 256 64 240
WIRE -32 128 -16 128
WIRE 64 112 64 128
WIRE 64 128 -16 128
WIRE 64 112 64 240
WIRE 208 256 208 240
WIRE 208 96 208 112
WIRE -288 224 -288 240
WIRE 208 240 208 112
WIRE 208 240 208 224
WIRE 208 224 -240 224
WIRE -240 224 -240 240
WIRE -240 240 -288 240
SYMBOL diode 80 96 R180
WINDOW 0 24 64 Left 2
WINDOW 3 24 0 Left 2
SYMATTR InstName D1
SYMBOL diode 224 320 R180
WINDOW 0 24 64 Left 2
WINDOW 3 24 0 Left 2
SYMATTR InstName D2
SYMBOL diode 224 96 R180
WINDOW 0 24 64 Left 2
WINDOW 3 24 0 Left 2
SYMATTR InstName D3
SYMBOL diode 80 320 R180
WINDOW 0 24 64 Left 2
WINDOW 3 24 0 Left 2
SYMATTR InstName D4
SYMBOL voltage -288 128 R0
WINDOW 123 0 0 Left 0
WINDOW 39 0 0 Left 0
SYMATTR InstName V1
SYMATTR Value SINE(0 325 50)
SYMBOL current 352 96 R0
WINDOW 123 0 0 Left 0
WINDOW 39 0 0 Left 0
SYMATTR InstName I1
SYMATTR Value 10
SYMBOL ind -128 144 R270
WINDOW 0 32 56 VTop 2
WINDOW 3 5 56 VBottom 2
SYMATTR InstName L1
SYMATTR Value 100”
TEXT -288 32 Left 2 !.tran 30m
TEXT -136 -120 Left 2 ;Single phase AC/DC converter (rectifier)
TEXT -296 -16 Left 2 ;Transient analysis
TEXT 440 128 Left 2 ;Constant current load: suitable to model loads with L/R >> 1/f
