Version 4.1
SHEET 1 880 680
WIRE 416 256 400 256
WIRE 560 320 560 336
WIRE 64 272 64 288
WIRE 208 272 208 288
WIRE 400 256 400 288
WIRE 400 288 208 288
WIRE 208 288 64 288
WIRE 400 256 400 336
WIRE 400 336 560 336
FLAG 560 336 0
WIRE 560 80 576 80
WIRE 64 192 64 176
WIRE 576 80 576 64
WIRE 576 64 64 64
WIRE 64 64 64 176
WIRE 272 128 256 128
WIRE 208 192 208 176
WIRE 256 128 256 176
WIRE 256 176 208 176
WIRE 416 160 400 160
WIRE 496 128 480 128
WIRE 352 128 368 128
WIRE 400 160 400 128
WIRE 400 128 368 128
WIRE 368 128 480 128
WIRE 480 208 496 208
WIRE 560 176 576 176
WIRE 560 240 560 224
WIRE 496 208 496 224
WIRE 496 224 560 224
WIRE 560 224 576 224
WIRE 576 224 576 176
SYMBOL voltage 64 176 R0
WINDOW 123 0 0 Left 0
WINDOW 39 24 124 Left 2
SYMATTR InstName V1
SYMATTR Value 10
SYMATTR SpiceLine Rser=1m
SYMBOL voltage 208 176 R0
WINDOW 123 0 0 Left 0
WINDOW 39 24 124 Left 2
SYMATTR InstName V2
SYMATTR Value 3.3
SYMATTR SpiceLine Rser=1m
SYMBOL res 256 144 R270
WINDOW 0 32 56 VTop 2
WINDOW 3 0 56 VBottom 2
SYMATTR InstName R1
SYMATTR Value 10k
SYMBOL res 544 224 R0
SYMATTR InstName R2
SYMATTR Value 100
SYMBOL npn 480 160 M0
SYMATTR InstName Q1
SYMATTR Value 2N3904
SYMBOL npn 496 80 R0
SYMATTR InstName Q2
SYMATTR Value 2N3904
TEXT 56 432 Left 2 !.tran 0 1 0 1m
TEXT 56 488 Left 2 !.step temp 0, 50, 10
TEXT 80 -120 Left 4 ;Temperature sweep simulation
