Version 4.1
SHEET 1 1932 680
WIRE 400 432 400 448
WIRE 896 432 896 448
WIRE 1424 432 1424 448
WIRE 48 592 48 608
WIRE 128 512 128 528
WIRE 576 608 576 624
WIRE 656 496 656 512
WIRE 1104 608 1104 624
WIRE 1184 480 1184 496
WIRE 400 448 608 448
WIRE 608 448 608 512
WIRE 608 512 656 512
WIRE 656 512 656 624
WIRE 656 624 576 624
WIRE 656 512 896 512
WIRE 896 512 896 448
WIRE 896 448 896 496
WIRE 896 496 1184 496
WIRE 1184 496 1184 624
WIRE 1184 624 1104 624
WIRE 1184 496 1424 496
WIRE 1424 496 1424 448
WIRE 400 448 400 528
WIRE 400 528 128 528
WIRE 128 528 128 608
WIRE 128 608 48 608
FLAG 1184 624 0
WIRE -448 160 -448 144
WIRE 224 32 240 32
WIRE 752 32 768 32
WIRE 1280 32 1296 32
WIRE -576 144 -576 128
WIRE -448 144 -448 128
WIRE -448 128 -576 128
WIRE -448 144 256 144
WIRE 256 144 256 32
WIRE 256 32 240 32
WIRE 240 32 240 16
WIRE 240 16 768 16
WIRE 768 16 768 32
WIRE 768 32 768 16
WIRE 768 16 1296 16
WIRE 1296 16 1296 32
WIRE 176 112 160 112
WIRE 48 512 48 496
WIRE 160 112 48 112
WIRE 48 112 48 496
WIRE 704 112 688 112
WIRE 576 528 576 512
WIRE 688 112 576 112
WIRE 576 112 576 512
WIRE 1232 112 1216 112
WIRE 1104 528 1104 512
WIRE 1216 112 1104 112
WIRE 1104 112 1104 512
WIRE 224 128 240 128
WIRE 224 240 240 240
WIRE 400 240 400 224
WIRE 240 128 240 240
WIRE 240 240 240 224
WIRE 240 224 400 224
WIRE 752 128 768 128
WIRE 752 240 768 240
WIRE 896 240 896 224
WIRE 768 128 768 240
WIRE 768 240 768 224
WIRE 768 224 896 224
WIRE 1280 128 1296 128
WIRE 1280 240 1296 240
WIRE 1424 240 1424 224
WIRE 1296 128 1296 240
WIRE 1296 240 1296 224
WIRE 1296 224 1424 224
WIRE 176 320 160 320
WIRE 128 432 128 416
WIRE 160 320 160 416
WIRE 160 416 128 416
WIRE 704 320 688 320
WIRE 656 416 656 400
WIRE 688 320 688 400
WIRE 688 400 656 400
WIRE 1232 320 1216 320
WIRE 1184 400 1184 384
WIRE 1216 320 1216 384
WIRE 1216 384 1184 384
WIRE 400 352 400 336
WIRE 400 320 400 336
WIRE 896 352 896 336
WIRE 896 320 896 336
WIRE 1424 352 1424 336
WIRE 1424 320 1424 336
WIRE -448 224 -448 240
WIRE -320 368 -336 368
WIRE -576 224 -576 240
WIRE -448 240 -576 240
WIRE -448 240 -448 368
WIRE -448 368 -336 368
WIRE 224 336 240 336
WIRE 752 336 768 336
WIRE 1280 336 1296 336
WIRE -240 368 -224 368
WIRE 240 336 240 368
WIRE 240 368 -224 368
WIRE 240 336 240 640
WIRE 240 640 768 640
WIRE 768 640 768 336
WIRE 768 336 768 640
WIRE 768 640 1296 640
WIRE 1296 640 1296 336
SYMBOL nmos 176 32 R0
SYMATTR InstName M1
SYMATTR Value Si7336ADP
SYMBOL nmos 176 240 R0
SYMATTR InstName M2
SYMATTR Value Si7336ADP
SYMBOL cap -464 160 R0
SYMATTR InstName C1
SYMATTR Value 10µ
SYMBOL voltage -576 128 R0
WINDOW 123 0 0 Left 2
WINDOW 39 0 0 Left 2
SYMATTR InstName V1
SYMATTR Value 10
SYMBOL res 384 224 R0
SYMATTR InstName R1
SYMATTR Value 100
SYMBOL ind 384 336 R0
SYMATTR InstName L1
SYMATTR Value 1m
SYMBOL voltage 48 496 R0
WINDOW 123 0 0 Left 2
WINDOW 39 0 0 Left 2
SYMATTR InstName V2
SYMATTR Value PULSE(0 5 0 1u 1u 0.5 1 10)
SYMBOL voltage 128 416 R0
WINDOW 123 0 0 Left 2
WINDOW 39 0 0 Left 2
SYMATTR InstName V3
SYMATTR Value PULSE(0 5 0.500 1u 1u 0.5 1 10)
SYMBOL nmos 704 32 R0
SYMATTR InstName M3
SYMATTR Value Si7336ADP
SYMBOL nmos 704 240 R0
SYMATTR InstName M4
SYMATTR Value Si7336ADP
SYMBOL res 880 224 R0
SYMATTR InstName R2
SYMATTR Value 100
SYMBOL ind 880 336 R0
SYMATTR InstName L2
SYMATTR Value 1m
SYMBOL voltage 576 512 R0
WINDOW 123 0 0 Left 2
WINDOW 39 0 0 Left 2
SYMATTR InstName V4
SYMATTR Value PULSE(0 5 0.3333 1u 1u 0.5 1 10)
SYMBOL voltage 656 400 R0
WINDOW 123 0 0 Left 2
WINDOW 39 0 0 Left 2
SYMATTR InstName V5
SYMATTR Value PULSE(0 5 0.8333 1u 1u 0.5 1 10)
SYMBOL nmos 1232 32 R0
SYMATTR InstName M5
SYMATTR Value Si7336ADP
SYMBOL nmos 1232 240 R0
SYMATTR InstName M6
SYMATTR Value Si7336ADP
SYMBOL res 1408 224 R0
SYMATTR InstName R3
SYMATTR Value 100
SYMBOL ind 1408 336 R0
SYMATTR InstName L3
SYMATTR Value 1m
SYMBOL voltage 1104 512 R0
WINDOW 123 0 0 Left 2
WINDOW 39 0 0 Left 2
SYMATTR InstName V6
SYMATTR Value PULSE(0 5 0.6666 1u 1u 0.5 1 10)
SYMBOL voltage 1184 384 R0
WINDOW 123 0 0 Left 2
WINDOW 39 0 0 Left 2
SYMATTR InstName V7
SYMATTR Value PULSE(0 5 1.1666 1u 1u 0.5 1 10)
SYMBOL res -224 352 R90
WINDOW 0 0 56 VBottom 2
WINDOW 3 32 56 VTop 2
SYMATTR InstName R4
SYMATTR Value 100
TEXT -576 -48 Left 2 !.tran 10
TEXT -576 -80 Left 2 ;Caution: shorted mosfets!
TEXT -536 512 Left 2 ;R4 just for current limiting purposes
TEXT 168 -112 Left 4 ;Three phase naive inverter
