Version 4.1
SHEET 1 936 680
WIRE 160 144 160 160
WIRE 320 144 320 160
WIRE 464 144 464 160
WIRE -64 144 -64 160
WIRE 160 160 320 160
WIRE 320 160 464 160
WIRE 160 160 -64 160
FLAG 464 160 0
WIRE 160 64 160 48
WIRE -64 64 -64 48
WIRE 160 48 -64 48
WIRE 320 64 320 48
WIRE 464 64 464 48
WIRE 320 48 464 48
SYMBOL ind2 144 48 R0
SYMATTR InstName Lp
SYMATTR Value 100”
SYMATTR Type ind
SYMBOL ind2 336 160 R180
WINDOW 0 36 80 Left 2
WINDOW 3 36 40 Left 2
SYMATTR InstName Ls
SYMATTR Value 4”
SYMATTR Type ind
SYMBOL voltage -64 48 R0
WINDOW 123 0 0 Left 2
WINDOW 39 24 124 Left 2
SYMATTR SpiceLine Rser=0.0001
SYMATTR InstName Vs
SYMATTR Value SINE(0 100 60)
SYMBOL res 448 48 R0
SYMATTR InstName RL
SYMATTR Value 1kOhms
TEXT 192 16 Left 2 !K Lp Ls 1
TEXT 632 80 Left 2 !.tran 0 0.1 0.001
TEXT 632 40 Left 2 ;Step down transformer 5:1
TEXT -32 -64 Left 4 ;Ideal step down 5:1 transformer
