Version 4.1
SHEET 1 2032 724
WIRE 192 320 192 336
WIRE 496 416 512 416
WIRE 32 320 32 336
WIRE 592 400 592 416
WIRE -32 688 -32 704
WIRE 448 656 448 672
WIRE -80 112 -80 128
WIRE 192 336 32 336
WIRE 32 336 -80 336
WIRE -80 336 -80 128
WIRE 192 336 192 432
WIRE 192 432 512 432
WIRE 512 432 512 416
WIRE 512 416 592 416
WIRE 512 416 512 672
WIRE 512 672 448 672
WIRE 32 336 32 704
WIRE 32 704 -32 704
FLAG 32 704 0
WIRE 32 48 32 32
WIRE 192 16 192 0
WIRE 592 176 592 160
WIRE -32 416 -32 400
WIRE -80 32 -80 16
WIRE 32 32 32 16
WIRE 32 16 -80 16
WIRE 32 32 32 0
WIRE 32 0 192 0
WIRE -80 16 -32 16
WIRE -32 16 -32 400
WIRE 192 0 592 0
WIRE 592 0 592 160
WIRE 192 128 208 128
WIRE 192 96 192 112
WIRE 208 128 208 112
WIRE 208 112 192 112
WIRE 128 176 112 176
WIRE 32 128 32 144
WIRE 32 240 32 224
WIRE 112 176 112 144
WIRE 112 144 32 144
WIRE 32 144 32 224
WIRE 192 256 192 240
WIRE 192 224 208 224
WIRE 352 256 336 256
WIRE 304 528 288 528
WIRE 192 240 208 240
WIRE 208 240 208 224
WIRE 192 240 336 240
WIRE 336 240 336 256
WIRE 336 256 288 256
WIRE 288 256 288 528
WIRE 496 320 512 320
WIRE 416 304 432 304
WIRE 592 256 592 272
WIRE 592 320 592 304
WIRE 512 320 512 304
WIRE 512 304 432 304
WIRE 512 304 592 304
WIRE 592 304 592 272
WIRE 432 368 416 368
WIRE 352 352 336 352
WIRE 416 368 336 368
WIRE 336 368 336 352
WIRE 448 576 448 560
WIRE 368 544 384 544
WIRE 448 560 448 544
WIRE 448 544 384 544
WIRE -32 496 -32 512
WIRE -32 608 -32 592
WIRE 304 560 288 560
WIRE -32 512 -32 592
WIRE -32 592 -32 560
WIRE -32 560 288 560
SYMBOL res 16 32 R0
SYMATTR InstName R1
SYMATTR Value 1k
SYMBOL res 16 224 R0
SYMATTR InstName R2
SYMATTR Value 10k
SYMBOL cap 176 256 R0
SYMATTR InstName C1
SYMATTR Value 100n
SYMBOL pnp 128 224 M180
SYMATTR InstName Q1
SYMATTR Value BC640
SYMBOL res 176 0 R0
SYMATTR InstName R3
SYMATTR Value 10k
SYMBOL voltage -80 16 R0
WINDOW 123 0 0 Left 0
WINDOW 39 0 0 Left 0
SYMATTR InstName V1
SYMATTR Value 9
SYMBOL npn 432 320 R0
SYMATTR InstName Q2
SYMATTR Value BC337-40
SYMBOL pnp 416 352 R180
SYMATTR InstName Q3
SYMATTR Value BC640
SYMBOL res 576 160 R0
SYMATTR InstName R4
SYMATTR Value 10k
SYMBOL res 576 304 R0
SYMATTR InstName R5
SYMATTR Value 10k
SYMBOL Opamps\\opamp 336 480 R0
SYMATTR InstName U1
SYMBOL res -48 400 R0
SYMATTR InstName R6
SYMATTR Value 10k
SYMBOL res -48 592 R0
SYMATTR InstName R7
SYMATTR Value 2k
SYMBOL res 432 560 R0
SYMATTR InstName R8
TEXT 0 -144 Left 4 ;Variable duty cyle square wave
TEXT 760 -80 Left 2 ;Veb_Q1 = 0.513 V (measured)\nVR3 = 0.3065 V (measured)\nEstimated emitter current (Q1) = VR3/10000 = 30.65uA\n \nIe = (Vcc - Veb - R2/(R2+R1)*Vcc)/R3 \nIe = (1+ beta)*Ic\n \nassuming beta >> 1 then Ie = Ic\n \nThen capacitor needs a time t to rise to a voltage equal to 4.5V + Veb\nrequired to turn on Q3 and in turn turning on Q2.\n \nt = (R5/(R4+R5)*Vcc + Veb) * C / Ic\nt = (4.50+0.6)*100*10**(-9)/Ic = 16.6 ms\n \nNeglecting discharging time which is quite fast, we get a frequency of\nf = 1/t = 60.09 Hz while the measured one is 62 Hz. Quite close.\n \n \nTo increase frequency:\n- Reduce C\n- Reduce VA\n- Increase Ic (reduce R3)\n \nVB controls the duty cycle: can be a fixed voltage as in the example, the output of a regulator, or a potentiometer\n \nNotes: better to use polyester capacitors and a real comparator (not an opamp)
TEXT 208 120 Left 2 ;e
TEXT 112 144 Left 2 ;b
TEXT 160 240 Left 2 ;c
TEXT 616 288 Left 2 ;A
TEXT 464 536 Left 2 ;OUT
TEXT -80 560 Left 2 ;B
