Version 4.1
SHEET 1 2152 680
WIRE 512 224 512 240
WIRE 224 272 224 288
WIRE 48 272 48 288
WIRE 768 112 784 112
WIRE 336 224 336 240
WIRE 512 240 336 240
WIRE 336 240 336 288
WIRE 336 288 224 288
WIRE 224 288 48 288
WIRE 512 240 784 240
WIRE 784 240 784 112
FLAG 336 288 0
WIRE 48 -32 48 -48
WIRE 224 -32 224 -48
WIRE 384 -112 368 -112
WIRE 576 64 560 64
WIRE 336 144 336 128
WIRE 48 -48 224 -48
WIRE 224 -48 224 -112
WIRE 224 -112 368 -112
WIRE 368 -112 368 128
WIRE 368 128 336 128
WIRE 336 128 336 64
WIRE 336 64 560 64
WIRE 512 160 512 144
WIRE 448 -112 464 -112
WIRE 576 -112 560 -112
WIRE 512 144 512 -112
WIRE 512 -112 464 -112
WIRE 464 -112 560 -112
WIRE 48 32 48 48
WIRE 48 208 48 192
WIRE -208 80 -208 64
WIRE 48 48 48 192
WIRE 48 48 48 64
WIRE 48 64 -208 64
WIRE 704 64 688 64
WIRE 656 64 672 64
WIRE 688 64 672 64
WIRE 224 208 224 192
WIRE 224 32 224 48
WIRE -208 160 -208 176
WIRE 224 192 224 48
WIRE 224 192 224 176
WIRE 224 176 -208 176
WIRE 768 16 784 16
WIRE 656 -112 672 -112
WIRE 784 16 784 -112
WIRE 784 -112 672 -112
FLAG 656 -112 output
SYMBOL voltage -208 64 R0
WINDOW 123 0 0 Left 0
WINDOW 39 0 0 Left 0
SYMATTR InstName V1
SYMATTR Value SINE(0 12 50)
SYMBOL schottky 64 32 R180
WINDOW 0 24 64 Left 2
WINDOW 3 24 0 Left 2
SYMATTR InstName D1
SYMATTR Value 1N5819
SYMATTR Description Diode
SYMATTR Type diode
SYMBOL schottky 240 272 R180
WINDOW 0 24 64 Left 2
WINDOW 3 24 0 Left 2
SYMATTR InstName D2
SYMATTR Value 1N5819
SYMATTR Description Diode
SYMATTR Type diode
SYMBOL schottky 240 32 R180
WINDOW 0 24 64 Left 2
WINDOW 3 24 0 Left 2
SYMATTR InstName D3
SYMATTR Value 1N5819
SYMATTR Description Diode
SYMATTR Type diode
SYMBOL schottky 64 272 R180
WINDOW 0 24 64 Left 2
WINDOW 3 24 0 Left 2
SYMATTR InstName D4
SYMATTR Value 1N5819
SYMATTR Description Diode
SYMATTR Type diode
SYMBOL res 672 -128 R90
WINDOW 0 0 56 VBottom 2
WINDOW 3 32 56 VTop 2
SYMATTR InstName R1
SYMATTR Value 10k
SYMBOL schottky 384 -96 R270
WINDOW 0 32 32 VTop 2
WINDOW 3 0 32 VBottom 2
SYMATTR InstName D5
SYMATTR Value 1N5819
SYMATTR Description Diode
SYMATTR Type diode
SYMBOL res 672 48 R90
WINDOW 0 0 56 VBottom 2
WINDOW 3 32 56 VTop 2
SYMATTR InstName R2
SYMATTR Value 10k
SYMBOL npn 704 16 R0
SYMATTR InstName Q1
SYMATTR Value 2N3904
SYMBOL cap 496 160 R0
SYMATTR InstName C1
SYMATTR Value 100µ
SYMBOL res 320 128 R0
SYMATTR InstName R3
SYMATTR Value 10k
TEXT 1008 -112 Left 2 !.tran 50m
TEXT 1016 -32 Left 2 ;How it works:\n \n1. During the positive half cycles of the rectified wave the capacitor C1 gets charged.\n2. When the half waves are higher than 0.8-1V Q1 is ON and therefore the output is low.\nIn the meanwhile, the capacitor C1 gets charged through D6.\n3. When the half wave goes lower than 0.8-1V, Q1 is shut down -> the output goes high.\n \nNotes:\n1. D1, D2, D3 and D4 form a full bridge rectifier which rectifies the sinewave V1.\n2. D5 allows to charge the capacitor and feed the transistor with almost constant current.\n3. R3 and R2 form the bias network for the transistor.\n4. C1 keeps the voltage roughly constant after the diode. R1 limits the discharge current through Q1.\n5. This configuration works well for low voltage applications.
TEXT 208 -248 Left 4 ;Zero crossing detector
