Version 4.1
SHEET 1 880 680
WIRE 208 64 112 64
WIRE 112 112 112 64
WIRE 208 112 208 64
WIRE 112 224 112 176
WIRE 208 224 208 192
FLAG 208 224 0
FLAG 112 224 0
FLAG 112 64 SENSE
SYMBOL cap 96 112 R0
SYMATTR InstName C9
SYMATTR Value 1u
SYMBOL res 192 96 R0
SYMATTR InstName R7
SYMATTR Value 1k
TEXT -96 112 Left 2 !.ic V(SENSE)=4
TEXT -88 64 Left 2 !.tran 7
TEXT -96 -88 Left 4 ;ASC compare valid case 01 B comment change
