Version 4.1
SHEET 1 976 680
WIRE 160 96 160 64
WIRE 96 144 64 144
WIRE 160 208 160 192
FLAG 160 -16 SUPPLY
FLAG 304 80 SUPPLY
FLAG -16 144 0
FLAG 160 208 0
FLAG 304 160 0
SYMBOL current -16 144 R270
WINDOW 0 32 40 VTop 2
WINDOW 3 -32 40 VBottom 2
WINDOW 123 0 0 Left 2
WINDOW 39 0 0 Left 2
SYMATTR InstName I9
SYMATTR Value {A}
SYMBOL npn 96 96 R0
SYMATTR InstName Q9
SYMATTR Value 2N3904
SYMBOL voltage 304 64 R0
WINDOW 123 0 0 Left 2
WINDOW 39 0 0 Left 2
SYMATTR InstName V9
SYMATTR Value 5
SYMBOL res 144 -32 R0
SYMATTR InstName R9
SYMATTR Value 1k
TEXT 456 56 Left 2 !.step PARAM A 10m 50m 10m
TEXT 264 0 Left 2 !.op
TEXT 176 -128 Left 4 ;ASC compare valid case 09 B
