Version 4
SHEET 1 880 680
SYMBOL cap 10 20 M90
WINDOW 3 32 56 VTop 2
SYMATTR Value 10u
TEXT 0 64 Invisible 0 ;annotation
