Version 4.1
SHEET 1 880 680
DATAFLAG 10 20 V(out)
IOPIN 30 40 In
BUSTAP 0 0 32 32
TEXT 0 80 Left 2 !.tf V(out) V1
