Version 4
SHEET 1 880 680
LINE Normal 0 0 64 0
RECTANGLE Normal 0 0 64 64 2
CIRCLE Wide 64 64 96 96
ARC Normal 0 0 64 64 16 16 48 48 3
TEXT 0 120 Left 2 !.tran 1m
