V1 IN 0 12
R1 IN OUT 5k
R2 OUT 0 1k
.tf V(OUT) V1
.backanno
.end
