V1 IN 0 10
R1 IN MID 1k
R2 MID 0 2k
.dc V1 0 10 1
.options plotwinsize=0
.backanno
.end
