V1 in 0 5
R1 in out 1k
.model D D
.backanno
.end
