Version 4.1
SHEET 1 1200 900
TEXT 32 48 Center 2 !.ac dec 10 1 1k
