Version 4.1
SHEET 3 976 680
SYMBOL res 0 0 R0
