V1 N001 0 5
R1 N001 N002 1k
C1 N002 0 10n
.op
.backanno
.end
