V1 N1001 0 15
R1 N1001 N1002 1k
L1 N1002 N1003 2m
C1 N1003 N1004 10n
R2 N1004 0 4.7k
.op
.backanno
.end
