V1 IN 0 10
R1 IN OUT 5k
R2 OUT 0 1k
.tran 0 10m
.lib analog.lib
.backanno
.end
