Version 4.1
SHEET 1 880 680
WIRE 0 0 64
TEXT 0 32 Left 2 !.tran 10m
