Version 4.1
SHEET 1 880
TEXT 0 0 Left 2 !.tran 10m
